New LoadShape.default npts=24 interval=1 mult=[ 0.677 0.6256 0.6087 0.5833 0.58028 0.6025 0.657 0.7477 0.832 0.88 0.94 0.989 0.985 0.98 0.9898 0.999 1 0.958 0.936 0.913 0.876 0.876 0.828 0.756]
New LoadShape.ls645 npts=24 interval=1 mult=[ 0.7 0.6 0.6 0.6 0.6 0.6 0.7 0.7 0.7 0.8 0.9 1 1 0.9 0.9 0.8 0.7 0.7 0.7 0.8 0.8 0.8 0.7 0.7]
New LoadShape.ls646 npts=24 interval=1 mult=[ 0.7 0.6 0.6 0.6 0.6 0.6 0.7 0.7 0.7 0.8 0.9 1 1 0.9 0.9 0.8 0.7 0.7 0.7 0.8 0.8 0.8 0.7 0.7]
New LoadShape.ls633 npts=24 interval=1 mult=[ 0.6 0.4 0.4 0.2 0.2 0.2 0.4 0.6 0.7 0.8 0.9 1 0.95 0.9 0.7 0.6 0.6 0.7 0.8 0.8 0.9 0.9 0.8 0.6]
New LoadShape.ls675 npts=24 interval=1 mult=[ 0.6 0.4 0.4 0.2 0.2 0.2 0.4 0.6 0.7 0.8 0.9 1 0.95 0.9 0.7 0.6 0.6 0.7 0.8 0.8 0.9 0.9 0.8 0.6]
New LoadShape.ls611 npts=24 interval=1 mult=[ 0.8 0.4 0.25 0.2 0.2 0.2 0.2 0.25 0.25 0.2 0.2 0.2 0.4 0.6 0.8 0.8 0.6 0.6 0.6 0.7 0.8 0.95 1 0.9]
New LoadShape.ls652 npts=24 interval=1 mult=[ 0.8 0.4 0.25 0.2 0.2 0.2 0.2 0.25 0.25 0.2 0.2 0.2 0.4 0.6 0.8 0.8 0.6 0.6 0.6 0.7 0.8 0.95 1 0.9]
