New "Load.1396" bus1=1396_2.1.2.3 phases=3 conn=LL model=1 kV=0.4 Kw=7.335 kvar=1.298 Vminpu=0.9 Vmaxpu=1.1 
New "Load.1697" bus1=1697_2.1.2.3 phases=3 conn=LL model=1 kV=0.4 Kw=46.286 kvar=8.193 Vminpu=0.9 Vmaxpu=1.1 
New "Load.1698" bus1=1698_2.1.2.3 phases=3 conn=LL model=1 kV=0.4 Kw=10.876 kvar=1.925 Vminpu=0.9 Vmaxpu=1.1 
New "Load.1744" bus1=1744_2.1.2.3 phases=3 conn=LL model=1 kV=0.4 Kw=66.521 kvar=11.775 Vminpu=0.9 Vmaxpu=1.1 
New "Load.1745" bus1=1745_2.1.2.3 phases=3 conn=LL model=1 kV=0.4 Kw=101.932 kvar=18.044 Vminpu=0.9 Vmaxpu=1.1 
New "Load.1746" bus1=1746_2.1.2.3 phases=3 conn=LL model=1 kV=0.4 Kw=59.186 kvar=10.477 Vminpu=0.9 Vmaxpu=1.1 
New "Load.1778" bus1=1778_2.1.2.3 phases=3 conn=LL model=1 kV=0.4 Kw=45.78 kvar=8.104 Vminpu=0.9 Vmaxpu=1.1 
New "Load.1812" bus1=1812_2.1.2.3 phases=3 conn=LL model=1 kV=0.4 Kw=69.05 kvar=12.223 Vminpu=0.9 Vmaxpu=1.1 
New "Load.1813" bus1=1813_2.1.2.3 phases=3 conn=LL model=1 kV=0.4 Kw=93.332 kvar=16.522 Vminpu=0.9 Vmaxpu=1.1 
New "Load.1855" bus1=1855_2.1.2.3 phases=3 conn=LL model=1 kV=0.4 Kw=10.623 kvar=1.88 Vminpu=0.9 Vmaxpu=1.1 
New "Load.1876" bus1=1876_2.1.2.3 phases=3 conn=LL model=1 kV=0.4 Kw=52.357 kvar=9.268 Vminpu=0.9 Vmaxpu=1.1 
New "Load.1877" bus1=1877_2.1.2.3 phases=3 conn=LL model=1 kV=0.4 Kw=59.186 kvar=10.477 Vminpu=0.9 Vmaxpu=1.1 
New "Load.1878" bus1=1878_2.1.2.3 phases=3 conn=LL model=1 kV=0.4 Kw=94.597 kvar=16.746 Vminpu=0.9 Vmaxpu=1.1 
New "Load.1879" bus1=1879_2.1.2.3 phases=3 conn=LL model=1 kV=0.4 Kw=62.98 kvar=11.149 Vminpu=0.9 Vmaxpu=1.1 
New "Load.1893" bus1=1893_2.1.2.3 phases=3 conn=LL model=1 kV=0.4 Kw=70.821 kvar=12.537 Vminpu=0.9 Vmaxpu=1.1 
New "Load.1930" bus1=1930_2.1.2.3 phases=3 conn=LL model=1 kV=0.4 Kw=37.434 kvar=6.626 Vminpu=0.9 Vmaxpu=1.1 
New "Load.1982" bus1=1982_2.1.2.3 phases=3 conn=LL model=1 kV=0.4 Kw=14.592 kvar=2.583 Vminpu=0.9 Vmaxpu=1.1 
New "Load.1987" bus1=1987_2.1.2.3 phases=3 conn=LL model=1 kV=0.4 Kw=67.533 kvar=11.955 Vminpu=0.9 Vmaxpu=1.1 
New "Load.2086" bus1=2086_2.1.2.3 phases=3 conn=LL model=1 kV=0.4 Kw=69.809 kvar=12.358 Vminpu=0.9 Vmaxpu=1.1 
New "Load.2087" bus1=2087_2.1.2.3 phases=3 conn=LL model=1 kV=0.4 Kw=75.121 kvar=13.298 Vminpu=0.9 Vmaxpu=1.1 
New "Load.2088" bus1=2088_2.1.2.3 phases=3 conn=LL model=1 kV=0.4 Kw=31.363 kvar=5.552 Vminpu=0.9 Vmaxpu=1.1 
New "Load.2089" bus1=2089_2.1.2.3 phases=3 conn=LL model=1 kV=0.4 Kw=22.258 kvar=3.94 Vminpu=0.9 Vmaxpu=1.1 
New "Load.2090" bus1=2090_2.1.2.3 phases=3 conn=LL model=1 kV=0.4 Kw=16.946 kvar=2.999 Vminpu=0.9 Vmaxpu=1.1 
New "Load.2091" bus1=2091_2.1.2.3 phases=3 conn=LL model=1 kV=0.4 Kw=22.258 kvar=3.94 Vminpu=0.9 Vmaxpu=1.1 
New "Load.2092" bus1=2092_2.1.2.3 phases=3 conn=LL model=1 kV=0.4 Kw=23.775 kvar=4.208 Vminpu=0.9 Vmaxpu=1.1 
New "Load.2095" bus1=2095_2.1.2.3 phases=3 conn=LL model=1 kV=0.4 Kw=40.722 kvar=7.208 Vminpu=0.9 Vmaxpu=1.1 
New "Load.2096" bus1=2096_2.1.2.3 phases=3 conn=LL model=1 kV=0.4 Kw=28.834 kvar=5.104 Vminpu=0.9 Vmaxpu=1.1 
New "Load.2097" bus1=2097_2.1.2.3 phases=3 conn=LL model=1 kV=0.4 Kw=23.522 kvar=4.164 Vminpu=0.9 Vmaxpu=1.1 
New "Load.2126" bus1=2126_2.1.2.3 phases=3 conn=LL model=1 kV=0.4 Kw=43.251 kvar=7.656 Vminpu=0.9 Vmaxpu=1.1 
New "Load.2174" bus1=2174_2.1.2.3 phases=3 conn=LL model=1 kV=0.4 Kw=136.195 kvar=24.109 Vminpu=0.9 Vmaxpu=1.1 
New "Load.2222" bus1=2222_2.1.2.3 phases=3 conn=LL model=1 kV=0.4 Kw=18.464 kvar=3.268 Vminpu=0.9 Vmaxpu=1.1 
New "Load.2279" bus1=2279_2.1.2.3 phases=3 conn=LL model=1 kV=0.4 Kw=23.016 kvar=4.074 Vminpu=0.9 Vmaxpu=1.1 
New "Load.2423" bus1=2423_2.1.2.3 phases=3 conn=LL model=1 kV=0.4 Kw=58.369 kvar=10.332 Vminpu=0.9 Vmaxpu=1.1 
New "Load.2605" bus1=2605_2.1.2.3 phases=3 conn=LL model=1 kV=0.4 Kw=38.698 kvar=6.85 Vminpu=0.9 Vmaxpu=1.1 
New "Load.2606" bus1=2606_2.1.2.3 phases=3 conn=LL model=1 kV=0.4 Kw=35.157 kvar=6.223 Vminpu=0.9 Vmaxpu=1.1 
New "Load.2607" bus1=2607_2.1.2.3 phases=3 conn=LL model=1 kV=0.4 Kw=31.869 kvar=5.641 Vminpu=0.9 Vmaxpu=1.1 
New "Load.2628" bus1=2628_2.1.2.3 phases=3 conn=LL model=1 kV=0.4 Kw=26.558 kvar=4.701 Vminpu=0.9 Vmaxpu=1.1 
New "Load.2764" bus1=2764_2.1.2.3 phases=3 conn=LL model=1 kV=0.4 Kw=8.346 kvar=1.477 Vminpu=0.9 Vmaxpu=1.1 
New "Load.2765" bus1=2765_2.1.2.3 phases=3 conn=LL model=1 kV=0.4 Kw=34.398 kvar=6.089 Vminpu=0.9 Vmaxpu=1.1 
New "Load.2774" bus1=2774_2.1.2.3 phases=3 conn=LL model=1 kV=0.4 Kw=18.211 kvar=3.223 Vminpu=0.9 Vmaxpu=1.1 
New "Load.2775" bus1=2775_2.1.2.3 phases=3 conn=LL model=1 kV=0.4 Kw=3.288 kvar=0.582 Vminpu=0.9 Vmaxpu=1.1 
New "Load.2776" bus1=2776_2.1.2.3 phases=3 conn=LL model=1 kV=0.4 Kw=3.288 kvar=0.582 Vminpu=0.9 Vmaxpu=1.1 
New "Load.2777" bus1=2777_2.1.2.3 phases=3 conn=LL model=1 kV=0.4 Kw=5.311 kvar=0.94 Vminpu=0.9 Vmaxpu=1.1 
New "Load.2778" bus1=2778_2.1.2.3 phases=3 conn=LL model=1 kV=0.4 Kw=4.046 kvar=0.716 Vminpu=0.9 Vmaxpu=1.1 
New "Load.2779" bus1=2779_2.1.2.3 phases=3 conn=LL model=1 kV=0.4 Kw=4.046 kvar=0.716 Vminpu=0.9 Vmaxpu=1.1 
New "Load.2780" bus1=2780_2.1.2.3 phases=3 conn=LL model=1 kV=0.4 Kw=3.035 kvar=0.537 Vminpu=0.9 Vmaxpu=1.1 
New "Load.2781" bus1=2781_2.1.2.3 phases=3 conn=LL model=1 kV=0.4 Kw=16.693 kvar=2.955 Vminpu=0.9 Vmaxpu=1.1 
New "Load.2847" bus1=2847_2.1.2.3 phases=3 conn=LL model=1 kV=0.4 Kw=12.646 kvar=2.238 Vminpu=0.9 Vmaxpu=1.1 
New "Load.2848" bus1=2848_2.1.2.3 phases=3 conn=LL model=1 kV=0.4 Kw=14.923 kvar=2.641 Vminpu=0.9 Vmaxpu=1.1 
New "Load.2849" bus1=2849_2.1.2.3 phases=3 conn=LL model=1 kV=0.4 Kw=14.923 kvar=2.641 Vminpu=0.9 Vmaxpu=1.1 
New "Load.2850" bus1=2850_2.1.2.3 phases=3 conn=LL model=1 kV=0.4 Kw=14.67 kvar=2.596 Vminpu=0.9 Vmaxpu=1.1 
New "Load.2851" bus1=2851_2.1.2.3 phases=3 conn=LL model=1 kV=0.4 Kw=12.393 kvar=2.194 Vminpu=0.9 Vmaxpu=1.1 
New "Load.2852" bus1=2852_2.1.2.3 phases=3 conn=LL model=1 kV=0.4 Kw=11.382 kvar=2.014 Vminpu=0.9 Vmaxpu=1.1 
New "Load.2853" bus1=2853_2.1.2.3 phases=3 conn=LL model=1 kV=0.4 Kw=14.923 kvar=2.641 Vminpu=0.9 Vmaxpu=1.1 
New "Load.2854" bus1=2854_2.1.2.3 phases=3 conn=LL model=1 kV=0.4 Kw=7.588 kvar=1.343 Vminpu=0.9 Vmaxpu=1.1 
New "Load.2855" bus1=2855_2.1.2.3 phases=3 conn=LL model=1 kV=0.4 Kw=16.693 kvar=2.955 Vminpu=0.9 Vmaxpu=1.1 
New "Load.2971" bus1=2971_2.1.2.3 phases=3 conn=LL model=1 kV=0.4 Kw=76.133 kvar=13.477 Vminpu=0.9 Vmaxpu=1.1 
New "Load.3086" bus1=3086_2.1.2.3 phases=3 conn=LL model=1 kV=0.4 Kw=24.32 kvar=4.305 Vminpu=0.9 Vmaxpu=1.1 
New "Load.3101" bus1=3101_2.1.2.3 phases=3 conn=LL model=1 kV=0.4 Kw=25.04 kvar=4.432 Vminpu=0.9 Vmaxpu=1.1 
New "Load.3102" bus1=3102_2.1.2.3 phases=3 conn=LL model=1 kV=0.4 Kw=48.057 kvar=8.507 Vminpu=0.9 Vmaxpu=1.1 
New "Load.3103" bus1=3103_2.1.2.3 phases=3 conn=LL model=1 kV=0.4 Kw=41.481 kvar=7.343 Vminpu=0.9 Vmaxpu=1.1 
New "Load.3154" bus1=3154_2.1.2.3 phases=3 conn=LL model=1 kV=0.4 Kw=45.78 kvar=8.104 Vminpu=0.9 Vmaxpu=1.1 
New "Load.3155" bus1=3155_2.1.2.3 phases=3 conn=LL model=1 kV=0.4 Kw=33.893 kvar=5.999 Vminpu=0.9 Vmaxpu=1.1 
New "Load.3156" bus1=3156_2.1.2.3 phases=3 conn=LL model=1 kV=0.4 Kw=22.511 kvar=3.985 Vminpu=0.9 Vmaxpu=1.1 
New "Load.3170" bus1=3170_2.1.2.3 phases=3 conn=LL model=1 kV=0.4 Kw=0.758 kvar=0.134 Vminpu=0.9 Vmaxpu=1.1 
New "Load.3384" bus1=3384_2.1.2.3 phases=3 conn=LL model=1 kV=0.4 Kw=16.44 kvar=2.91 Vminpu=0.9 Vmaxpu=1.1 
New "Load.3401" bus1=3401_2.1.2.3 phases=3 conn=LL model=1 kV=0.4 Kw=10.876 kvar=1.925 Vminpu=0.9 Vmaxpu=1.1 
New "Load.3402" bus1=3402_2.1.2.3 phases=3 conn=LL model=1 kV=0.4 Kw=11.382 kvar=2.014 Vminpu=0.9 Vmaxpu=1.1 
New "Load.3407" bus1=3407_2.1.2.3 phases=3 conn=LL model=1 kV=0.4 Kw=15.681 kvar=2.776 Vminpu=0.9 Vmaxpu=1.1 
New "Load.3408" bus1=3408_2.1.2.3 phases=3 conn=LL model=1 kV=0.4 Kw=21.246 kvar=3.761 Vminpu=0.9 Vmaxpu=1.1 
New "Load.3409" bus1=3409_2.1.2.3 phases=3 conn=LL model=1 kV=0.4 Kw=17.452 kvar=3.089 Vminpu=0.9 Vmaxpu=1.1 
New "Load.3410" bus1=3410_2.1.2.3 phases=3 conn=LL model=1 kV=0.4 Kw=5.058 kvar=0.895 Vminpu=0.9 Vmaxpu=1.1 
New "Load.3411" bus1=3411_2.1.2.3 phases=3 conn=LL model=1 kV=0.4 Kw=12.899 kvar=2.283 Vminpu=0.9 Vmaxpu=1.1 
New "Load.3412" bus1=3412_2.1.2.3 phases=3 conn=LL model=1 kV=0.4 Kw=4.856 kvar=0.859 Vminpu=0.9 Vmaxpu=1.1 
New "Load.3413" bus1=3413_2.1.2.3 phases=3 conn=LL model=1 kV=0.4 Kw=12.14 kvar=2.149 Vminpu=0.9 Vmaxpu=1.1 
New "Load.3414" bus1=3414_2.1.2.3 phases=3 conn=LL model=1 kV=0.4 Kw=10.876 kvar=1.925 Vminpu=0.9 Vmaxpu=1.1 
New "Load.3415" bus1=3415_2.1.2.3 phases=3 conn=LL model=1 kV=0.4 Kw=14.164 kvar=2.507 Vminpu=0.9 Vmaxpu=1.1 
New "Load.3426" bus1=3426_2.1.2.3 phases=3 conn=LL model=1 kV=0.4 Kw=1.77 kvar=0.313 Vminpu=0.9 Vmaxpu=1.1 
New "Load.3469" bus1=3469_2.1.2.3 phases=3 conn=LL model=1 kV=0.4 Kw=11.634 kvar=2.059 Vminpu=0.9 Vmaxpu=1.1 
New "Load.3470" bus1=3470_2.1.2.3 phases=3 conn=LL model=1 kV=0.4 Kw=11.634 kvar=2.059 Vminpu=0.9 Vmaxpu=1.1 
New "Load.3496" bus1=3496_2.1.2.3 phases=3 conn=LL model=1 kV=0.4 Kw=15.681 kvar=2.776 Vminpu=0.9 Vmaxpu=1.1 
New "Load.3508" bus1=3508_2.1.2.3 phases=3 conn=LL model=1 kV=0.4 Kw=5.311 kvar=0.94 Vminpu=0.9 Vmaxpu=1.1 
New "Load.3533" bus1=3533_2.1.2.3 phases=3 conn=LL model=1 kV=0.4 Kw=11.887 kvar=2.104 Vminpu=0.9 Vmaxpu=1.1 
New "Load.3534" bus1=3534_2.1.2.3 phases=3 conn=LL model=1 kV=0.4 Kw=15.176 kvar=2.686 Vminpu=0.9 Vmaxpu=1.1 
New "Load.3535" bus1=3535_2.1.2.3 phases=3 conn=LL model=1 kV=0.4 Kw=20.234 kvar=3.582 Vminpu=0.9 Vmaxpu=1.1 
New "Load.3536" bus1=3536_2.1.2.3 phases=3 conn=LL model=1 kV=0.4 Kw=11.887 kvar=2.104 Vminpu=0.9 Vmaxpu=1.1 
New "Load.3587" bus1=3587_2.1.2.3 phases=3 conn=LL model=1 kV=0.4 Kw=28.581 kvar=5.059 Vminpu=0.9 Vmaxpu=1.1 
New "Load.3588" bus1=3588_2.1.2.3 phases=3 conn=LL model=1 kV=0.4 Kw=16.44 kvar=2.91 Vminpu=0.9 Vmaxpu=1.1 
New "Load.3593" bus1=3593_2.1.2.3 phases=3 conn=LL model=1 kV=0.4 Kw=35.41 kvar=6.268 Vminpu=0.9 Vmaxpu=1.1 
New "Load.3594" bus1=3594_2.1.2.3 phases=3 conn=LL model=1 kV=0.4 Kw=24.281 kvar=4.298 Vminpu=0.9 Vmaxpu=1.1 
New "Load.3598" bus1=3598_2.1.2.3 phases=3 conn=LL model=1 kV=0.4 Kw=1.517 kvar=0.268 Vminpu=0.9 Vmaxpu=1.1 
New "Load.3602" bus1=3602_2.1.2.3 phases=3 conn=LL model=1 kV=0.4 Kw=25.293 kvar=4.477 Vminpu=0.9 Vmaxpu=1.1 
New "Load.3604" bus1=3604_2.1.2.3 phases=3 conn=LL model=1 kV=0.4 Kw=47.298 kvar=8.373 Vminpu=0.9 Vmaxpu=1.1 
New "Load.3605" bus1=3605_2.1.2.3 phases=3 conn=LL model=1 kV=0.4 Kw=27.063 kvar=4.79 Vminpu=0.9 Vmaxpu=1.1 
New "Load.3624" bus1=3624_2.1.2.3 phases=3 conn=LL model=1 kV=0.4 Kw=68.797 kvar=12.178 Vminpu=0.9 Vmaxpu=1.1 
New "Load.3656" bus1=3656_2.1.2.3 phases=3 conn=LL model=1 kV=0.4 Kw=51.345 kvar=9.089 Vminpu=0.9 Vmaxpu=1.1 
New "Load.3657" bus1=3657_2.1.2.3 phases=3 conn=LL model=1 kV=0.4 Kw=22.005 kvar=3.895 Vminpu=0.9 Vmaxpu=1.1 
New "Load.3658" bus1=3658_2.1.2.3 phases=3 conn=LL model=1 kV=0.4 Kw=16.693 kvar=2.955 Vminpu=0.9 Vmaxpu=1.1 
New "Load.3662" bus1=3662_2.1.2.3 phases=3 conn=LL model=1 kV=0.4 Kw=27.569 kvar=4.88 Vminpu=0.9 Vmaxpu=1.1 
New "Load.3683" bus1=3683_2.1.2.3 phases=3 conn=LL model=1 kV=0.4 Kw=57.415 kvar=10.164 Vminpu=0.9 Vmaxpu=1.1 
New "Load.3687" bus1=3687_2.1.2.3 phases=3 conn=LL model=1 kV=0.4 Kw=26.052 kvar=4.611 Vminpu=0.9 Vmaxpu=1.1 
New "Load.3693" bus1=3693_2.1.2.3 phases=3 conn=LL model=1 kV=0.4 Kw=51.092 kvar=9.044 Vminpu=0.9 Vmaxpu=1.1 
New "Load.3700" bus1=3700_2.1.2.3 phases=3 conn=LL model=1 kV=0.4 Kw=1.264 kvar=0.223 Vminpu=0.9 Vmaxpu=1.1 
New "Load.3731" bus1=3731_2.1.2.3 phases=3 conn=LL model=1 kV=0.4 Kw=25.293 kvar=4.477 Vminpu=0.9 Vmaxpu=1.1 
New "Load.3757" bus1=3757_2.1.2.3 phases=3 conn=LL model=1 kV=0.4 Kw=7.84 kvar=1.388 Vminpu=0.9 Vmaxpu=1.1 
New "Load.3759" bus1=3759_2.1.2.3 phases=3 conn=LL model=1 kV=0.4 Kw=18.97 kvar=3.358 Vminpu=0.9 Vmaxpu=1.1 
New "Load.3770" bus1=3770_2.1.2.3 phases=3 conn=LL model=1 kV=0.4 Kw=8.599 kvar=1.522 Vminpu=0.9 Vmaxpu=1.1 
New "Load.3771" bus1=3771_2.1.2.3 phases=3 conn=LL model=1 kV=0.4 Kw=28.581 kvar=5.059 Vminpu=0.9 Vmaxpu=1.1 
New "Load.3788" bus1=3788_2.1.2.3 phases=3 conn=LL model=1 kV=0.4 Kw=19.222 kvar=3.402 Vminpu=0.9 Vmaxpu=1.1 
New "Load.3794" bus1=3794_2.1.2.3 phases=3 conn=LL model=1 kV=0.4 Kw=11.634 kvar=2.059 Vminpu=0.9 Vmaxpu=1.1 
New "Load.3826" bus1=3826_2.1.2.3 phases=3 conn=LL model=1 kV=0.4 Kw=21.246 kvar=3.761 Vminpu=0.9 Vmaxpu=1.1 
New "Load.3840" bus1=3840_2.1.2.3 phases=3 conn=LL model=1 kV=0.4 Kw=31.363 kvar=5.552 Vminpu=0.9 Vmaxpu=1.1 
New "Load.3850" bus1=3850_2.1.2.3 phases=3 conn=LL model=1 kV=0.4 Kw=59.945 kvar=10.611 Vminpu=0.9 Vmaxpu=1.1 
New "Load.3932" bus1=3932_2.1.2.3 phases=3 conn=LL model=1 kV=0.4 Kw=17.452 kvar=3.089 Vminpu=0.9 Vmaxpu=1.1 
New "Load.3978" bus1=3978_2.1.2.3 phases=3 conn=LL model=1 kV=0.4 Kw=43.504 kvar=7.701 Vminpu=0.9 Vmaxpu=1.1 
New "Load.3979" bus1=3979_2.1.2.3 phases=3 conn=LL model=1 kV=0.4 Kw=24.32 kvar=4.305 Vminpu=0.9 Vmaxpu=1.1 
New "Load.3980" bus1=3980_2.1.2.3 phases=3 conn=LL model=1 kV=0.4 Kw=40.469 kvar=7.164 Vminpu=0.9 Vmaxpu=1.1 
New "Load.3981" bus1=3981_2.1.2.3 phases=3 conn=LL model=1 kV=0.4 Kw=52.357 kvar=9.268 Vminpu=0.9 Vmaxpu=1.1 
New "Load.4014" bus1=4014_2.1.2.3 phases=3 conn=LL model=1 kV=0.4 Kw=26.305 kvar=4.656 Vminpu=0.9 Vmaxpu=1.1 
New "Load.4015" bus1=4015_2.1.2.3 phases=3 conn=LL model=1 kV=0.4 Kw=25.04 kvar=4.432 Vminpu=0.9 Vmaxpu=1.1 
New "Load.4051" bus1=4051_2.1.2.3 phases=3 conn=LL model=1 kV=0.4 Kw=12.16 kvar=2.152 Vminpu=0.9 Vmaxpu=1.1 
New "Load.4055" bus1=4055_2.1.2.3 phases=3 conn=LL model=1 kV=0.4 Kw=16.946 kvar=2.999 Vminpu=0.9 Vmaxpu=1.1 
New "Load.4091" bus1=4091_2.1.2.3 phases=3 conn=LL model=1 kV=0.4 Kw=4.299 kvar=0.761 Vminpu=0.9 Vmaxpu=1.1 
New "Load.4127" bus1=4127_2.1.2.3 phases=3 conn=LL model=1 kV=0.4 Kw=7.84 kvar=1.388 Vminpu=0.9 Vmaxpu=1.1 
New "Load.4130" bus1=4130_2.1.2.3 phases=3 conn=LL model=1 kV=0.4 Kw=24.534 kvar=4.343 Vminpu=0.9 Vmaxpu=1.1 
New "Load.4131" bus1=4131_2.1.2.3 phases=3 conn=LL model=1 kV=0.4 Kw=24.787 kvar=4.388 Vminpu=0.9 Vmaxpu=1.1 
New "Load.4132" bus1=4132_2.1.2.3 phases=3 conn=LL model=1 kV=0.4 Kw=24.028 kvar=4.253 Vminpu=0.9 Vmaxpu=1.1 
New "Load.4133" bus1=4133_2.1.2.3 phases=3 conn=LL model=1 kV=0.4 Kw=32.375 kvar=5.731 Vminpu=0.9 Vmaxpu=1.1 
New "Load.4147" bus1=4147_2.1.2.3 phases=3 conn=LL model=1 kV=0.4 Kw=16.187 kvar=2.865 Vminpu=0.9 Vmaxpu=1.1 
New "Load.4148" bus1=4148_2.1.2.3 phases=3 conn=LL model=1 kV=0.4 Kw=25.799 kvar=4.567 Vminpu=0.9 Vmaxpu=1.1 
New "Load.4177" bus1=4177_2.1.2.3 phases=3 conn=LL model=1 kV=0.4 Kw=6.829 kvar=1.208 Vminpu=0.9 Vmaxpu=1.1 
New "Load.4241" bus1=4241_2.1.2.3 phases=3 conn=LL model=1 kV=0.4 Kw=34.398 kvar=6.089 Vminpu=0.9 Vmaxpu=1.1 
New "Load.4287" bus1=4287_2.1.2.3 phases=3 conn=LL model=1 kV=0.4 Kw=42.745 kvar=7.567 Vminpu=0.9 Vmaxpu=1.1 
New "Load.4302" bus1=4302_2.1.2.3 phases=3 conn=LL model=1 kV=0.4 Kw=58.369 kvar=10.332 Vminpu=0.9 Vmaxpu=1.1 
New "Load.4311" bus1=4311_2.1.2.3 phases=3 conn=LL model=1 kV=0.4 Kw=10.37 kvar=1.835 Vminpu=0.9 Vmaxpu=1.1 
New "Load.4339" bus1=4339_2.1.2.3 phases=3 conn=LL model=1 kV=0.4 Kw=37.181 kvar=6.582 Vminpu=0.9 Vmaxpu=1.1 
New "Load.4418" bus1=4418_2.1.2.3 phases=3 conn=LL model=1 kV=0.4 Kw=20.993 kvar=3.716 Vminpu=0.9 Vmaxpu=1.1 
New "Load.4419" bus1=4419_2.1.2.3 phases=3 conn=LL model=1 kV=0.4 Kw=49.575 kvar=8.776 Vminpu=0.9 Vmaxpu=1.1 
New "Load.4420" bus1=4420_2.1.2.3 phases=3 conn=LL model=1 kV=0.4 Kw=32.881 kvar=5.82 Vminpu=0.9 Vmaxpu=1.1 
New "Load.4421" bus1=4421_2.1.2.3 phases=3 conn=LL model=1 kV=0.4 Kw=45.022 kvar=7.97 Vminpu=0.9 Vmaxpu=1.1 
New "Load.4422" bus1=4422_2.1.2.3 phases=3 conn=LL model=1 kV=0.4 Kw=48.057 kvar=8.507 Vminpu=0.9 Vmaxpu=1.1 
New "Load.4432" bus1=4432_2.1.2.3 phases=3 conn=LL model=1 kV=0.4 Kw=36.422 kvar=6.447 Vminpu=0.9 Vmaxpu=1.1 
New "Load.4433" bus1=4433_2.1.2.3 phases=3 conn=LL model=1 kV=0.4 Kw=31.616 kvar=5.596 Vminpu=0.9 Vmaxpu=1.1 
New "Load.4438" bus1=4438_2.1.2.3 phases=3 conn=LL model=1 kV=0.4 Kw=44.01 kvar=7.79 Vminpu=0.9 Vmaxpu=1.1 
New "Load.4452" bus1=4452_2.1.2.3 phases=3 conn=LL model=1 kV=0.4 Kw=36.169 kvar=6.402 Vminpu=0.9 Vmaxpu=1.1 
New "Load.4453" bus1=4453_2.1.2.3 phases=3 conn=LL model=1 kV=0.4 Kw=40.975 kvar=7.253 Vminpu=0.9 Vmaxpu=1.1 
New "Load.4470" bus1=4470_2.1.2.3 phases=3 conn=LL model=1 kV=0.4 Kw=136.195 kvar=24.109 Vminpu=0.9 Vmaxpu=1.1 
New "Load.4472" bus1=4472_2.1.2.3 phases=3 conn=LL model=1 kV=0.4 Kw=0.505 kvar=0.09 Vminpu=0.9 Vmaxpu=1.1 
New "Load.4473" bus1=4473_2.1.2.3 phases=3 conn=LL model=1 kV=0.4 Kw=0.758 kvar=0.134 Vminpu=0.9 Vmaxpu=1.1 
New "Load.4474" bus1=4474_2.1.2.3 phases=3 conn=LL model=1 kV=0.4 Kw=14.592 kvar=2.583 Vminpu=0.9 Vmaxpu=1.1 
New "Load.4475" bus1=4475_2.1.2.3 phases=3 conn=LL model=1 kV=0.4 Kw=16.693 kvar=2.955 Vminpu=0.9 Vmaxpu=1.1 
New "Load.4478" bus1=4478_2.1.2.3 phases=3 conn=LL model=1 kV=0.4 Kw=13.152 kvar=2.328 Vminpu=0.9 Vmaxpu=1.1 
New "Load.4540" bus1=4540_2.1.2.3 phases=3 conn=LL model=1 kV=0.4 Kw=26.558 kvar=4.701 Vminpu=0.9 Vmaxpu=1.1 
New "Load.4551" bus1=4551_2.1.2.3 phases=3 conn=LL model=1 kV=0.4 Kw=72.961 kvar=12.916 Vminpu=0.9 Vmaxpu=1.1 
New "Load.4561" bus1=4561_2.1.2.3 phases=3 conn=LL model=1 kV=0.4 Kw=18.717 kvar=3.313 Vminpu=0.9 Vmaxpu=1.1 
New "Load.4567" bus1=4567_2.1.2.3 phases=3 conn=LL model=1 kV=0.4 Kw=12.393 kvar=2.194 Vminpu=0.9 Vmaxpu=1.1 
New "Load.4608" bus1=4608_2.1.2.3 phases=3 conn=LL model=1 kV=0.4 Kw=28.075 kvar=4.97 Vminpu=0.9 Vmaxpu=1.1 
New "Load.4609" bus1=4609_2.1.2.3 phases=3 conn=LL model=1 kV=0.4 Kw=20.487 kvar=3.626 Vminpu=0.9 Vmaxpu=1.1 
New "Load.4621" bus1=4621_2.1.2.3 phases=3 conn=LL model=1 kV=0.4 Kw=31.616 kvar=5.596 Vminpu=0.9 Vmaxpu=1.1 
New "Load.4670" bus1=4670_2.1.2.3 phases=3 conn=LL model=1 kV=0.4 Kw=1.264 kvar=0.223 Vminpu=0.9 Vmaxpu=1.1 
New "Load.4671" bus1=4671_2.1.2.3 phases=3 conn=LL model=1 kV=0.4 Kw=1.77 kvar=0.313 Vminpu=0.9 Vmaxpu=1.1 
New "Load.4684" bus1=4684_2.1.2.3 phases=3 conn=LL model=1 kV=0.4 Kw=0.252 kvar=0.045 Vminpu=0.9 Vmaxpu=1.1 
New "Load.4718" bus1=4718_2.1.2.3 phases=3 conn=LL model=1 kV=0.4 Kw=0.505 kvar=0.09 Vminpu=0.9 Vmaxpu=1.1 
New "Load.4719" bus1=4719_2.1.2.3 phases=3 conn=LL model=1 kV=0.4 Kw=0.252 kvar=0.045 Vminpu=0.9 Vmaxpu=1.1 
New "Load.4744" bus1=4744_2.1.2.3 phases=3 conn=LL model=1 kV=0.4 Kw=31.869 kvar=5.641 Vminpu=0.9 Vmaxpu=1.1 
New "Load.4766" bus1=4766_2.1.2.3 phases=3 conn=LL model=1 kV=0.4 Kw=8.852 kvar=1.567 Vminpu=0.9 Vmaxpu=1.1 
New "Load.4777" bus1=4777_2.1.2.3 phases=3 conn=LL model=1 kV=0.4 Kw=21.246 kvar=3.761 Vminpu=0.9 Vmaxpu=1.1 
New "Load.4778" bus1=4778_2.1.2.3 phases=3 conn=LL model=1 kV=0.4 Kw=14.417 kvar=2.552 Vminpu=0.9 Vmaxpu=1.1 
New "Load.4779" bus1=4779_2.1.2.3 phases=3 conn=LL model=1 kV=0.4 Kw=19.728 kvar=3.492 Vminpu=0.9 Vmaxpu=1.1 
New "Load.4811" bus1=4811_2.1.2.3 phases=3 conn=LL model=1 kV=0.4 Kw=0.505 kvar=0.09 Vminpu=0.9 Vmaxpu=1.1 
New "Load.4816" bus1=4816_2.1.2.3 phases=3 conn=LL model=1 kV=0.4 Kw=48.641 kvar=8.61 Vminpu=0.9 Vmaxpu=1.1 
New "Load.4829" bus1=4829_2.1.2.3 phases=3 conn=LL model=1 kV=0.4 Kw=123.898 kvar=21.933 Vminpu=0.9 Vmaxpu=1.1 
New "Load.4845" bus1=4845_2.1.2.3 phases=3 conn=LL model=1 kV=0.4 Kw=19.359 kvar=3.427 Vminpu=0.9 Vmaxpu=1.1 
New "Load.4846" bus1=4846_2.1.2.3 phases=3 conn=LL model=1 kV=0.4 Kw=13.405 kvar=2.373 Vminpu=0.9 Vmaxpu=1.1 
New "Load.4847" bus1=4847_2.1.2.3 phases=3 conn=LL model=1 kV=0.4 Kw=8.346 kvar=1.477 Vminpu=0.9 Vmaxpu=1.1 
New "Load.5055" bus1=5055_2.1.2.3 phases=3 conn=LL model=1 kV=0.4 Kw=22.258 kvar=3.94 Vminpu=0.9 Vmaxpu=1.1 
New "Load.5063" bus1=5063_2.1.2.3 phases=3 conn=LL model=1 kV=0.4 Kw=77.423 kvar=15.882 Vminpu=0.9 Vmaxpu=1.1 
New "Load.5087" bus1=5087_2.1.2.3 phases=3 conn=LL model=1 kV=0.4 Kw=11.382 kvar=2.014 Vminpu=0.9 Vmaxpu=1.1 
New "Load.5103" bus1=5103_2.1.2.3 phases=3 conn=LL model=1 kV=0.4 Kw=27.569 kvar=4.88 Vminpu=0.9 Vmaxpu=1.1 
New "Load.5104" bus1=5104_2.1.2.3 phases=3 conn=LL model=1 kV=0.4 Kw=21.246 kvar=3.761 Vminpu=0.9 Vmaxpu=1.1 
New "Load.5145" bus1=5145_2.1.2.3 phases=3 conn=LL model=1 kV=0.4 Kw=36.928 kvar=6.537 Vminpu=0.9 Vmaxpu=1.1 
New "Load.5147" bus1=5147_3_.1.2.3 phases=3 conn=LL model=1 kV=0.4 Kw=33.387 kvar=5.91 Vminpu=0.9 Vmaxpu=1.1 
New "Load.5148" bus1=5148_2.1.2.3 phases=3 conn=LL model=1 kV=0.4 Kw=14.923 kvar=2.641 Vminpu=0.9 Vmaxpu=1.1 
New "Load.5149" bus1=5149_2.1.2.3 phases=3 conn=LL model=1 kV=0.4 Kw=19.222 kvar=3.402 Vminpu=0.9 Vmaxpu=1.1 
New "Load.5150" bus1=5150_3_.1.2.3 phases=3 conn=LL model=1 kV=0.4 Kw=30.099 kvar=5.328 Vminpu=0.9 Vmaxpu=1.1 
New "Load.5555" bus1=5555_2.1.2.3 phases=3 conn=LL model=1 kV=0.4 Kw=16.693 kvar=2.955 Vminpu=0.9 Vmaxpu=1.1 
New "Load.5556" bus1=5556_2.1.2.3 phases=3 conn=LL model=1 kV=0.4 Kw=16.693 kvar=2.955 Vminpu=0.9 Vmaxpu=1.1 
New "Load.5557" bus1=5557_2.1.2.3 phases=3 conn=LL model=1 kV=0.4 Kw=16.693 kvar=2.955 Vminpu=0.9 Vmaxpu=1.1 
New "Load.5558" bus1=5558_2.1.2.3 phases=3 conn=LL model=1 kV=0.4 Kw=16.693 kvar=2.955 Vminpu=0.9 Vmaxpu=1.1 
New "Load.5559" bus1=5559_2.1.2.3 phases=3 conn=LL model=1 kV=0.4 Kw=16.693 kvar=2.955 Vminpu=0.9 Vmaxpu=1.1 
New "Load.5560" bus1=5560_2.1.2.3 phases=3 conn=LL model=1 kV=0.4 Kw=16.693 kvar=2.955 Vminpu=0.9 Vmaxpu=1.1 
New "Load.5561_1_" bus1=5561_2.1.2.3 phases=3 conn=LL model=1 kV=0.4 Kw=19.728 kvar=3.492 Vminpu=0.9 Vmaxpu=1.1 
New "Load.5562" bus1=5562_2.1.2.3 phases=3 conn=LL model=1 kV=0.4 Kw=16.693 kvar=2.955 Vminpu=0.9 Vmaxpu=1.1 
New "Load.5563" bus1=5563_2.1.2.3 phases=3 conn=LL model=1 kV=0.4 Kw=16.693 kvar=2.955 Vminpu=0.9 Vmaxpu=1.1 
New "Load.5564" bus1=5564_2.1.2.3 phases=3 conn=LL model=1 kV=0.4 Kw=16.693 kvar=2.955 Vminpu=0.9 Vmaxpu=1.1 
