New LoadShape.default npts=24 interval=1 mult=[0.677 0.626 0.609 0.583 0.58 0.603 0.657 0.748 0.832 0.88 0.94 0.989 0.985 0.98 0.99 0.999 1.0 0.958 0.936 0.913 0.876 0.876 0.828 0.756]
New LoadShape.gfv01i_0100 npts=24 csvfile=GFV01I_0100.csv

