New Transformer.xfm_1 wdg=1 bus=633.1.2.3 wdg=2 tap=1.0 bus=634.1.2.3 xfmrcode=xfm_1typ
New Transformer.55e26d0e-3244-4bf5-8efc-1a0a00c7cc3a wdg=1 bus=f5d369c9-9d9f-4b35-9ca3-5d6ab0da6dcd.1.2.3 wdg=2 tap=1.0 bus=344c8433-5eba-4c95-87d4-d3a5299da001.1.2.3 xfmrcode=substationtyp3ph
