New Circuit.source pu=1.025 r1=1.6038 x1=6.4151 r0=1.796 x0=5.3881 basekv=115.0 bus1=substation115kv.1.2.3.0
