New Generator.b75c4420-a0f5-486a-bee9-e20835351502 bus1=d450c563-96ec-48fd-b3c9-89cc3beb19c8.1.2.3 phases=3 kv=10.0 kw=10.0 pf=0.8 daily=gbio01_0100
