New Circuit.source bus1=buset.1.2.3.0 pu=1.037 basekv=13.2 r1=0 r0=0 x1=0.001 x0=0.001 phases=3
