New Load.Carga_IDSeta_2943 phases=3 bus1=X_2943.1.2.3.0 kv=0.38 kW=124.31880765413875 pf=0.919 status=variable model=1 CVRwatts=0.8 CVRvars=3 Class=1 conn=wye
New Load.Carga_IDSeta_3012 phases=3 bus1=X_3012.1.2.3.0 kv=0.38 kW=63.071602552325565 pf=0.92 status=variable model=1 CVRwatts=0.8 CVRvars=3 Class=1 conn=wye
New Load.Carga_IDSeta_2982 phases=3 bus1=X_2982.1.2.3.0 kv=0.38 kW=9.792532625560833 pf=0.942 status=variable model=1 CVRwatts=0.8 CVRvars=3 Class=1 conn=wye
New Load.Carga_IDSeta_2986 phases=3 bus1=X_2986.1.2.3.0 kv=0.38 kW=53.078983282578065 pf=0.942 status=variable model=1 CVRwatts=0.8 CVRvars=3 Class=1 conn=wye
New Load.Carga_IDSeta_205 phases=3 bus1=X_205.1.2.3.0 kv=0.38 kW=2.7201079770589183 pf=0.905 status=variable model=1 CVRwatts=0.8 CVRvars=3 Class=1 conn=wye
New Load.Carga_IDSeta_1354 phases=3 bus1=X_1354.1.2.3.0 kv=0.38 kW=4.6809852644494265 pf=0.905 status=variable model=1 CVRwatts=0.8 CVRvars=3 Class=1 conn=wye
New Load.Carga_IDSeta_2073 phases=3 bus1=X_2073.1.2.3.0 kv=0.38 kW=4.1622526122564745 pf=0.905 status=variable model=1 CVRwatts=0.8 CVRvars=3 Class=1 conn=wye
New Load.Carga_IDSeta_828 phases=3 bus1=X_828.1.2.3.0 kv=0.38 kW=11.020246433991218 pf=0.942 status=variable model=1 CVRwatts=0.8 CVRvars=3 Class=1 conn=wye
New Load.Carga_IDSeta_115 phases=3 bus1=X_115.1.2.3.0 kv=0.38 kW=21.31104682092599 pf=0.942 status=variable model=1 CVRwatts=0.8 CVRvars=3 Class=1 conn=wye
New Load.Carga_IDSeta_1245 phases=3 bus1=X_1245.1.2.3.0 kv=0.38 kW=16.738693402590684 pf=0.905 status=variable model=1 CVRwatts=0.8 CVRvars=3 Class=1 conn=wye
New Load.Carga_IDSeta_848 phases=3 bus1=X_848.1.2.3.0 kv=0.38 kW=12.170749151936331 pf=0.905 status=variable model=1 CVRwatts=0.8 CVRvars=3 Class=1 conn=wye
New Load.Carga_IDSeta_1945 phases=3 bus1=X_1945.1.2.3.0 kv=0.38 kW=59.75707920793838 pf=0.905 status=variable model=1 CVRwatts=0.8 CVRvars=3 Class=1 conn=wye
New Load.Carga_IDSeta_2970 phases=3 bus1=X_2970.1.2.3.0 kv=0.38 kW=4.945497487442544 pf=0.905 status=variable model=1 CVRwatts=0.8 CVRvars=3 Class=1 conn=wye
New Load.Carga_IDSeta_2971 phases=3 bus1=X_2971.1.2.3.0 kv=0.38 kW=43.195708350868045 pf=0.905 status=variable model=1 CVRwatts=0.8 CVRvars=3 Class=1 conn=wye
New Load.Carga_IDSeta_3002 phases=3 bus1=X_3002.1.2.3.0 kv=0.38 kW=28.859130070928533 pf=0.942 status=variable model=1 CVRwatts=0.8 CVRvars=3 Class=1 conn=wye
New Load.Carga_IDSeta_1067 phases=3 bus1=X_1067.1.2.3.0 kv=0.38 kW=2.7314948900544427 pf=0.942 status=variable model=1 CVRwatts=0.8 CVRvars=3 Class=1 conn=wye
New Load.Carga_IDSeta_821 phases=3 bus1=X_821.1.2.3.0 kv=0.38 kW=37.24371960320165 pf=0.942 status=variable model=1 CVRwatts=0.8 CVRvars=3 Class=1 conn=wye
New Load.Carga_IDSeta_210 phases=3 bus1=X_210.1.2.3.0 kv=0.38 kW=0.8349351677076848 pf=0.942 status=variable model=1 CVRwatts=0.8 CVRvars=3 Class=1 conn=wye
New Load.Carga_IDSeta_784 phases=3 bus1=X_784.1.2.3.0 kv=0.38 kW=86.48761223776326 pf=0.942 status=variable model=1 CVRwatts=0.8 CVRvars=3 Class=1 conn=wye
New Load.Carga_IDSeta_2960 phases=3 bus1=X_2960.1.2.3.0 kv=0.38 kW=1.164869225914754 pf=0.942 status=variable model=1 CVRwatts=0.8 CVRvars=3 Class=1 conn=wye
New Load.Carga_IDSeta_646 phases=3 bus1=X_646.1.2.3.0 kv=0.38 kW=0.6060013314007391 pf=0.942 status=variable model=1 CVRwatts=0.8 CVRvars=3 Class=1 conn=wye
! New Load.Carga_IDSeta_2952 phases=3 bus1=X_2952.1.2.3.0 kv=0.38 kW=0.0 pf=0.942 status=variable model=1 CVRwatts=0.8 CVRvars=3 Class=1 conn=wye
New Load.Carga_IDSeta_2959 phases=3 bus1=X_2959.1.2.3.0 kv=0.38 kW=17.529149623110268 pf=0.942 status=variable model=1 CVRwatts=0.8 CVRvars=3 Class=1 conn=wye
New Load.Carga_IDSeta_2956 phases=3 bus1=X_2956.1.2.3.0 kv=0.38 kW=1.9392042604823652 pf=0.942 status=variable model=1 CVRwatts=0.8 CVRvars=3 Class=1 conn=wye
New Load.Carga_IDSeta_2088 phases=3 bus1=X_2088.1.2.3.0 kv=0.38 kW=11.169127034677489 pf=0.905 status=variable model=1 CVRwatts=0.8 CVRvars=3 Class=1 conn=wye
New Load.Carga_IDSeta_560 phases=3 bus1=X_560.1.2.3.0 kv=0.38 kW=37.06671081650831 pf=0.905 status=variable model=1 CVRwatts=0.8 CVRvars=3 Class=1 conn=wye
New Load.Carga_IDSeta_1638 phases=3 bus1=X_1638.1.2.3.0 kv=0.38 kW=7.714308707260932 pf=0.905 status=variable model=1 CVRwatts=0.8 CVRvars=3 Class=1 conn=wye
New Load.Carga_IDSeta_2396 phases=3 bus1=X_2396.1.2.3.0 kv=0.38 kW=1.0741708276049347 pf=0.905 status=variable model=1 CVRwatts=0.8 CVRvars=3 Class=1 conn=wye
New Load.Carga_IDSeta_1951 phases=3 bus1=X_1951.1.2.3.0 kv=0.38 kW=1.221124145538531 pf=0.905 status=variable model=1 CVRwatts=0.8 CVRvars=3 Class=1 conn=wye
New Load.Carga_IDSeta_570 phases=3 bus1=X_570.1.2.3.0 kv=0.38 kW=21.648366449342948 pf=0.905 status=variable model=1 CVRwatts=0.8 CVRvars=3 Class=1 conn=wye
New Load.Carga_IDSeta_2940 phases=3 bus1=X_2940.1.2.3.0 kv=0.38 kW=84.47529308943297 pf=0.92 status=variable model=1 CVRwatts=0.8 CVRvars=3 Class=1 conn=wye
New Load.Carga_IDSeta_1594 phases=3 bus1=X_1594.1.2.3.0 kv=0.38 kW=126.64720032255731 pf=0.92 status=variable model=1 CVRwatts=0.8 CVRvars=3 Class=1 conn=wye
New Load.Carga_IDSeta_1595 phases=3 bus1=X_1595.1.2.3.0 kv=0.38 kW=162.2415108420604 pf=0.92 status=variable model=1 CVRwatts=0.8 CVRvars=3 Class=1 conn=wye
New Load.Carga_IDSeta_2937 phases=3 bus1=X_2937.1.2.3.0 kv=0.38 kW=146.63462850830365 pf=0.905 status=variable model=1 CVRwatts=0.8 CVRvars=3 Class=1 conn=wye
New Load.Carga_IDSeta_2947 phases=3 bus1=X_2947.1.2.3.0 kv=0.38 kW=8.18971834405083 pf=0.905 status=variable model=1 CVRwatts=0.8 CVRvars=3 Class=1 conn=wye
New Load.Carga_IDSeta_593 phases=3 bus1=X_593.1.2.3.0 kv=0.38 kW=11.255360643874395 pf=0.905 status=variable model=1 CVRwatts=0.8 CVRvars=3 Class=1 conn=wye
New Load.Carga_IDSeta_2948 phases=3 bus1=X_2948.1.2.3.0 kv=0.38 kW=6.094466597807403 pf=0.905 status=variable model=1 CVRwatts=0.8 CVRvars=3 Class=1 conn=wye
New Load.Carga_IDSeta_594 phases=3 bus1=X_594.1.2.3.0 kv=0.38 kW=12.489251112861426 pf=0.905 status=variable model=1 CVRwatts=0.8 CVRvars=3 Class=1 conn=wye
New Load.Carga_IDSeta_859 phases=3 bus1=X_859.1.2.3.0 kv=0.38 kW=6.341844577581832 pf=0.905 status=variable model=1 CVRwatts=0.8 CVRvars=3 Class=1 conn=wye
New Load.Carga_IDSeta_2074 phases=3 bus1=X_2074.1.2.3.0 kv=0.38 kW=0.8979543218547359 pf=0.905 status=variable model=1 CVRwatts=0.8 CVRvars=3 Class=1 conn=wye
New Load.Carga_IDSeta_596 phases=3 bus1=X_596.1.2.3.0 kv=0.38 kW=0.982313287373448 pf=0.905 status=variable model=1 CVRwatts=0.8 CVRvars=3 Class=1 conn=wye
New Load.Carga_IDSeta_1874 phases=3 bus1=X_1874.1.2.3.0 kv=0.38 kW=30.349318870873958 pf=0.905 status=variable model=1 CVRwatts=0.8 CVRvars=3 Class=1 conn=wye
New Load.Carga_IDSeta_956 phases=3 bus1=X_956.1.2.3.0 kv=0.38 kW=10.414245102590478 pf=0.942 status=variable model=1 CVRwatts=0.8 CVRvars=3 Class=1 conn=wye
New Load.Carga_IDSeta_2258 phases=3 bus1=X_2258.1.2.3.0 kv=0.38 kW=8.843256623142683 pf=0.905 status=variable model=1 CVRwatts=0.8 CVRvars=3 Class=1 conn=wye
New Load.Carga_IDSeta_2286 phases=3 bus1=X_2286.1.2.3.0 kv=0.38 kW=23.72549039121824 pf=0.905 status=variable model=1 CVRwatts=0.8 CVRvars=3 Class=1 conn=wye
New Load.Carga_IDSeta_582 phases=3 bus1=X_582.1.2.3.0 kv=0.38 kW=5.689543563317586 pf=0.905 status=variable model=1 CVRwatts=0.8 CVRvars=3 Class=1 conn=wye
New Load.Carga_IDSeta_2962 phases=3 bus1=X_2962.1.2.3.0 kv=0.38 kW=0.7855572814454026 pf=0.942 status=variable model=1 CVRwatts=0.8 CVRvars=3 Class=1 conn=wye
New Load.Carga_IDSeta_957 phases=3 bus1=X_957.1.2.3.0 kv=0.38 kW=15.915390522083856 pf=0.942 status=variable model=1 CVRwatts=0.8 CVRvars=3 Class=1 conn=wye
New Load.Carga_IDSeta_958 phases=3 bus1=X_958.1.2.3.0 kv=0.38 kW=12.181165429004988 pf=0.942 status=variable model=1 CVRwatts=0.8 CVRvars=3 Class=1 conn=wye
New Load.Carga_IDSeta_2949 phases=3 bus1=X_2949.1.2.3.0 kv=0.38 kW=0.17506705129354685 pf=0.942 status=variable model=1 CVRwatts=0.8 CVRvars=3 Class=1 conn=wye
New Load.Carga_IDSeta_2966 phases=3 bus1=X_2966.1.2.3.0 kv=0.38 kW=0.2558672288136454 pf=0.942 status=variable model=1 CVRwatts=0.8 CVRvars=3 Class=1 conn=wye
New Load.Carga_IDSeta_2968 phases=3 bus1=X_2968.1.2.3.0 kv=0.38 kW=9.373920372525454 pf=0.942 status=variable model=1 CVRwatts=0.8 CVRvars=3 Class=1 conn=wye
New Load.Carga_IDSeta_520 phases=3 bus1=X_520.1.2.3.0 kv=0.38 kW=61.90312578056052 pf=0.942 status=variable model=1 CVRwatts=0.8 CVRvars=3 Class=1 conn=wye
New Load.Carga_IDSeta_644 phases=3 bus1=X_644.1.2.3.0 kv=0.38 kW=4.27343161106299 pf=0.942 status=variable model=1 CVRwatts=0.8 CVRvars=3 Class=1 conn=wye
New Load.Carga_IDSeta_1046 phases=3 bus1=X_1046.1.2.3.0 kv=0.38 kW=4.391409055478862 pf=0.905 status=variable model=1 CVRwatts=0.8 CVRvars=3 Class=1 conn=wye
New Load.Carga_IDSeta_2992 phases=3 bus1=X_2992.1.2.3.0 kv=0.38 kW=19.74228499666604 pf=0.905 status=variable model=1 CVRwatts=0.8 CVRvars=3 Class=1 conn=wye
New Load.Carga_IDSeta_524 phases=3 bus1=X_524.1.2.3.0 kv=0.38 kW=13.52024889655756 pf=0.905 status=variable model=1 CVRwatts=0.8 CVRvars=3 Class=1 conn=wye
New Load.Carga_IDSeta_1106 phases=3 bus1=X_1106.1.2.3.0 kv=0.38 kW=15.719393395446476 pf=0.905 status=variable model=1 CVRwatts=0.8 CVRvars=3 Class=1 conn=wye
New Load.Carga_IDSeta_2950 phases=3 bus1=X_2950.1.2.3.0 kv=0.38 kW=8.285793832558253 pf=0.905 status=variable model=1 CVRwatts=0.8 CVRvars=3 Class=1 conn=wye
! New Load.Carga_IDSeta_1213 phases=3 bus1=X_1213.1.2.3.0 kv=0.38 kW=0.0 pf=0.905 status=variable model=1 CVRwatts=0.8 CVRvars=3 Class=1 conn=wye
New Load.Carga_IDSeta_2643 phases=3 bus1=X_2643.1.2.3.0 kv=0.38 kW=24.499305808702992 pf=0.905 status=variable model=1 CVRwatts=0.8 CVRvars=3 Class=1 conn=wye
New Load.Carga_IDSeta_2967 phases=3 bus1=X_2967.1.2.3.0 kv=0.38 kW=3.0781649195938963 pf=0.905 status=variable model=1 CVRwatts=0.8 CVRvars=3 Class=1 conn=wye
New Load.Carga_IDSeta_2973 phases=3 bus1=X_2973.1.2.3.0 kv=0.38 kW=11.729645494457376 pf=0.905 status=variable model=1 CVRwatts=0.8 CVRvars=3 Class=1 conn=wye
New Load.Carga_IDSeta_2963 phases=3 bus1=X_2963.1.2.3.0 kv=0.38 kW=0.6845570595452792 pf=0.942 status=variable model=1 CVRwatts=0.8 CVRvars=3 Class=1 conn=wye
New Load.Carga_IDSeta_2989 phases=3 bus1=X_2989.1.2.3.0 kv=0.38 kW=4.316076149198597 pf=0.942 status=variable model=1 CVRwatts=0.8 CVRvars=3 Class=1 conn=wye
New Load.Carga_IDSeta_968 phases=3 bus1=X_968.1.2.3.0 kv=0.38 kW=60.45648838003818 pf=0.942 status=variable model=1 CVRwatts=0.8 CVRvars=3 Class=1 conn=wye
New Load.Carga_IDSeta_1002 phases=3 bus1=X_1002.1.2.3.0 kv=0.38 kW=32.32073165573591 pf=0.905 status=variable model=1 CVRwatts=0.8 CVRvars=3 Class=1 conn=wye
New Load.Carga_IDSeta_2957 phases=3 bus1=X_2957.1.2.3.0 kv=0.38 kW=1.209145172434874 pf=0.905 status=variable model=1 CVRwatts=0.8 CVRvars=3 Class=1 conn=wye
New Load.Carga_IDSeta_2988 phases=3 bus1=X_2988.1.2.3.0 kv=0.38 kW=0.44803983908827116 pf=0.905 status=variable model=1 CVRwatts=0.8 CVRvars=3 Class=1 conn=wye
New Load.Carga_IDSeta_833 phases=3 bus1=X_833.1.2.3.0 kv=0.38 kW=15.517662989236062 pf=0.905 status=variable model=1 CVRwatts=0.8 CVRvars=3 Class=1 conn=wye
New Load.Carga_IDSeta_523 phases=3 bus1=X_523.1.2.3.0 kv=0.38 kW=8.214688597844368 pf=0.905 status=variable model=1 CVRwatts=0.8 CVRvars=3 Class=1 conn=wye
New Load.Carga_IDSeta_1356 phases=3 bus1=X_1356.1.2.3.0 kv=0.38 kW=2.3925830343451406 pf=0.942 status=variable model=1 CVRwatts=0.8 CVRvars=3 Class=1 conn=wye
New Load.Carga_IDSeta_1382 phases=3 bus1=X_1382.1.2.3.0 kv=0.38 kW=2.2938272618205753 pf=0.942 status=variable model=1 CVRwatts=0.8 CVRvars=3 Class=1 conn=wye
New Load.Carga_IDSeta_635 phases=3 bus1=X_635.1.2.3.0 kv=0.38 kW=0.3486837241440102 pf=0.905 status=variable model=1 CVRwatts=0.8 CVRvars=3 Class=1 conn=wye
New Load.Carga_IDSeta_1355 phases=3 bus1=X_1355.1.2.3.0 kv=0.38 kW=55.98998273660835 pf=0.905 status=variable model=1 CVRwatts=0.8 CVRvars=3 Class=1 conn=wye
New Load.Carga_IDSeta_1243 phases=3 bus1=X_1243.1.2.3.0 kv=0.38 kW=2.7294811954498868 pf=0.905 status=variable model=1 CVRwatts=0.8 CVRvars=3 Class=1 conn=wye
New Load.Carga_IDSeta_1543 phases=3 bus1=X_1543.1.2.3.0 kv=0.38 kW=35.52830322843551 pf=0.905 status=variable model=1 CVRwatts=0.8 CVRvars=3 Class=1 conn=wye
New Load.Carga_IDSeta_2 phases=3 bus1=X_2.1.2.3.0 kv=0.38 kW=7.570527743758122 pf=0.942 status=variable model=1 CVRwatts=0.8 CVRvars=3 Class=1 conn=wye
New Load.Carga_IDSeta_2978 phases=3 bus1=X_2978.1.2.3.0 kv=0.38 kW=3.1960959107950093 pf=0.942 status=variable model=1 CVRwatts=0.8 CVRvars=3 Class=1 conn=wye
New Load.Carga_IDSeta_2724 phases=3 bus1=X_2724.1.2.3.0 kv=0.38 kW=0.7698461358164944 pf=0.942 status=variable model=1 CVRwatts=0.8 CVRvars=3 Class=1 conn=wye
New Load.Carga_IDSeta_2683 phases=3 bus1=X_2683.1.2.3.0 kv=0.38 kW=63.64227823099464 pf=0.905 status=variable model=1 CVRwatts=0.8 CVRvars=3 Class=1 conn=wye
New Load.Carga_IDSeta_1352 phases=3 bus1=X_1352.1.2.3.0 kv=0.38 kW=130.36530838985908 pf=0.905 status=variable model=1 CVRwatts=0.8 CVRvars=3 Class=1 conn=wye
New Load.Carga_IDSeta_1374 phases=3 bus1=X_1374.1.2.3.0 kv=0.38 kW=12.95941174735238 pf=0.905 status=variable model=1 CVRwatts=0.8 CVRvars=3 Class=1 conn=wye
New Load.Carga_IDSeta_2977 phases=3 bus1=X_2977.1.2.3.0 kv=0.38 kW=6.107589103554759 pf=0.905 status=variable model=1 CVRwatts=0.8 CVRvars=3 Class=1 conn=wye
New Load.Carga_IDSeta_2660 phases=3 bus1=X_2660.1.2.3.0 kv=0.38 kW=0.5230255862160152 pf=0.905 status=variable model=1 CVRwatts=0.8 CVRvars=3 Class=1 conn=wye
New Load.Carga_IDSeta_2975 phases=3 bus1=X_2975.1.2.3.0 kv=0.38 kW=73.19261295667839 pf=0.905 status=variable model=1 CVRwatts=0.8 CVRvars=3 Class=1 conn=wye
New Load.Carga_IDSeta_1353 phases=3 bus1=X_1353.1.2.3.0 kv=0.38 kW=20.876406929099605 pf=0.905 status=variable model=1 CVRwatts=0.8 CVRvars=3 Class=1 conn=wye
New Load.Carga_IDSeta_1318 phases=3 bus1=X_1318.1.2.3.0 kv=0.38 kW=0.3074415632237509 pf=0.905 status=variable model=1 CVRwatts=0.8 CVRvars=3 Class=1 conn=wye
New Load.Carga_IDSeta_540 phases=3 bus1=X_540.1.2.3.0 kv=0.38 kW=3.863642446995904 pf=0.92 status=variable model=1 CVRwatts=0.8 CVRvars=3 Class=1 conn=wye
New Load.Carga_IDSeta_541 phases=3 bus1=X_541.1.2.3.0 kv=0.38 kW=6.3536276368423295 pf=0.92 status=variable model=1 CVRwatts=0.8 CVRvars=3 Class=1 conn=wye
New Load.Carga_IDSeta_2395 phases=3 bus1=X_2395.1.2.3.0 kv=0.38 kW=2.9000737701655037 pf=0.905 status=variable model=1 CVRwatts=0.8 CVRvars=3 Class=1 conn=wye
New Load.Carga_IDSeta_2228 phases=3 bus1=X_2228.1.2.3.0 kv=0.38 kW=0.5642677471362746 pf=0.905 status=variable model=1 CVRwatts=0.8 CVRvars=3 Class=1 conn=wye
New Load.Carga_IDSeta_651 phases=3 bus1=X_651.1.2.3.0 kv=0.38 kW=1.970250505781477 pf=0.905 status=variable model=1 CVRwatts=0.8 CVRvars=3 Class=1 conn=wye
New Load.Carga_IDSeta_31 phases=3 bus1=X_31.1.2.3.0 kv=0.38 kW=0.9719273045868949 pf=0.92 status=variable model=1 CVRwatts=0.8 CVRvars=3 Class=1 conn=wye
New Load.Carga_IDSeta_27 phases=3 bus1=X_27.1.2.3.0 kv=0.38 kW=6.566896256820254 pf=0.92 status=variable model=1 CVRwatts=0.8 CVRvars=3 Class=1 conn=wye
New Load.Carga_IDSeta_805 phases=3 bus1=X_805.1.2.3.0 kv=0.38 kW=4.722227425369686 pf=0.905 status=variable model=1 CVRwatts=0.8 CVRvars=3 Class=1 conn=wye
New Load.Carga_IDSeta_3020 phases=3 bus1=X_3020.1.2.3.0 kv=0.38 kW=47.84705549876522 pf=0.905 status=variable model=1 CVRwatts=0.8 CVRvars=3 Class=1 conn=wye
New Load.Carga_IDSeta_2543 phases=3 bus1=X_2543.1.2.3.0 kv=0.38 kW=1.6515610804885645 pf=0.905 status=variable model=1 CVRwatts=0.8 CVRvars=3 Class=1 conn=wye
New Load.Carga_IDSeta_1105 phases=3 bus1=X_1105.1.2.3.0 kv=0.38 kW=0.8604614482908639 pf=0.905 status=variable model=1 CVRwatts=0.8 CVRvars=3 Class=1 conn=wye
New Load.Carga_IDSeta_656 phases=3 bus1=X_656.1.2.3.0 kv=0.38 kW=14.37476772438855 pf=0.905 status=variable model=1 CVRwatts=0.8 CVRvars=3 Class=1 conn=wye
New Load.Carga_IDSeta_204 phases=3 bus1=X_204.1.2.3.0 kv=0.38 kW=6.426278528847671 pf=0.905 status=variable model=1 CVRwatts=0.8 CVRvars=3 Class=1 conn=wye
New Load.Carga_IDSeta_3001 phases=3 bus1=X_3001.1.2.3.0 kv=0.38 kW=31.150954000543106 pf=0.905 status=variable model=1 CVRwatts=0.8 CVRvars=3 Class=1 conn=wye
New Load.Carga_IDSeta_3014 phases=3 bus1=X_3014.1.2.3.0 kv=0.38 kW=5.61866546556424 pf=0.92 status=variable model=1 CVRwatts=0.8 CVRvars=3 Class=1 conn=wye
New Load.Carga_IDSeta_2898 phases=3 bus1=X_2898.1.2.3.0 kv=0.38 kW=15.292143354749372 pf=0.905 status=variable model=1 CVRwatts=0.8 CVRvars=3 Class=1 conn=wye
New Load.Carga_IDSeta_2944 phases=3 bus1=X_2944.1.2.3.0 kv=0.38 kW=1.3403340352779274 pf=0.92 status=variable model=1 CVRwatts=0.8 CVRvars=3 Class=1 conn=wye
New Load.Carga_IDSeta_2377 phases=3 bus1=X_2377.1.2.3.0 kv=0.38 kW=10.328956026319265 pf=0.942 status=variable model=1 CVRwatts=0.8 CVRvars=3 Class=1 conn=wye
New Load.Carga_IDSeta_2583 phases=3 bus1=X_2583.1.2.3.0 kv=0.38 kW=0.8169795727032186 pf=0.942 status=variable model=1 CVRwatts=0.8 CVRvars=3 Class=1 conn=wye
New Load.Carga_IDSeta_2549 phases=3 bus1=X_2549.1.2.3.0 kv=0.38 kW=0.2289338363069459 pf=0.942 status=variable model=1 CVRwatts=0.8 CVRvars=3 Class=1 conn=wye
New Load.Carga_IDSeta_3010 phases=3 bus1=X_3010.1.2.3.0 kv=0.38 kW=4.32505394670083 pf=0.942 status=variable model=1 CVRwatts=0.8 CVRvars=3 Class=1 conn=wye
New Load.Carga_IDSeta_1228 phases=3 bus1=X_1228.1.2.3.0 kv=0.38 kW=0.7047571039253039 pf=0.942 status=variable model=1 CVRwatts=0.8 CVRvars=3 Class=1 conn=wye
New Load.Carga_IDSeta_104 phases=3 bus1=X_104.1.2.3.0 kv=0.38 kW=69.78441998485845 pf=0.942 status=variable model=1 CVRwatts=0.8 CVRvars=3 Class=1 conn=wye
New Load.Carga_IDSeta_11 phases=3 bus1=X_11.1.2.3.0 kv=0.38 kW=7.186726900537654 pf=0.942 status=variable model=1 CVRwatts=0.8 CVRvars=3 Class=1 conn=wye
New Load.Carga_IDSeta_42 phases=3 bus1=X_42.1.2.3.0 kv=0.38 kW=2.597360015876978 pf=0.92 status=variable model=1 CVRwatts=0.8 CVRvars=3 Class=1 conn=wye
New Load.Carga_IDSeta_2997 phases=3 bus1=X_2997.1.2.3.0 kv=0.38 kW=3.999841859945347 pf=0.92 status=variable model=1 CVRwatts=0.8 CVRvars=3 Class=1 conn=wye
New Load.Carga_IDSeta_2930 phases=3 bus1=X_2930.1.2.3.0 kv=0.38 kW=61.40364601652378 pf=0.942 status=variable model=1 CVRwatts=0.8 CVRvars=3 Class=1 conn=wye
New Load.Carga_IDSeta_1759 phases=3 bus1=X_1759.1.2.3.0 kv=0.38 kW=11.555525165568115 pf=0.942 status=variable model=1 CVRwatts=0.8 CVRvars=3 Class=1 conn=wye
New Load.Carga_IDSeta_5006 phases=3 bus1=X_5006.1.2.3.0 kv=0.38 kW=20.11924420250454 pf=0.942 status=variable model=1 CVRwatts=0.8 CVRvars=3 Class=1 conn=wye
New Load.Carga_IDSeta_5000 phases=3 bus1=X_5000.1.2.3.0 kv=0.38 kW=0.11671136752903123 pf=0.942 status=variable model=1 CVRwatts=0.8 CVRvars=3 Class=1 conn=wye
New Load.Carga_IDSeta_5026 phases=3 bus1=X_5026.1.2.3.0 kv=0.38 kW=0.2962673175736947 pf=0.942 status=variable model=1 CVRwatts=0.8 CVRvars=3 Class=1 conn=wye
New Load.Carga_IDSeta_5007 phases=3 bus1=X_5007.1.2.3.0 kv=0.38 kW=0.2985117669492529 pf=0.942 status=variable model=1 CVRwatts=0.8 CVRvars=3 Class=1 conn=wye
New Load.Carga_IDSeta_5008 phases=3 bus1=X_5008.1.2.3.0 kv=0.38 kW=0.6486458695363467 pf=0.942 status=variable model=1 CVRwatts=0.8 CVRvars=3 Class=1 conn=wye
New Load.Carga_IDSeta_5011 phases=3 bus1=X_5011.1.2.3.0 kv=0.38 kW=1.1469136309102876 pf=0.942 status=variable model=1 CVRwatts=0.8 CVRvars=3 Class=1 conn=wye
New Load.Carga_IDSeta_5009 phases=3 bus1=X_5009.1.2.3.0 kv=0.38 kW=17.705271565610328 pf=0.942 status=variable model=1 CVRwatts=0.8 CVRvars=3 Class=1 conn=wye
New Load.Carga_IDSeta_2644 phases=3 bus1=X_2644.1.2.3.0 kv=0.38 kW=1.3915586128461417 pf=0.942 status=variable model=1 CVRwatts=0.8 CVRvars=3 Class=1 conn=wye
New Load.Carga_IDSeta_2922 phases=3 bus1=X_2922.1.2.3.0 kv=0.38 kW=0.6329347239074387 pf=0.942 status=variable model=1 CVRwatts=0.8 CVRvars=3 Class=1 conn=wye
New Load.Carga_IDSeta_1973 phases=3 bus1=X_1973.1.2.3.0 kv=0.38 kW=27.723438686896035 pf=0.942 status=variable model=1 CVRwatts=0.8 CVRvars=3 Class=1 conn=wye
New Load.Carga_IDSeta_2951 phases=3 bus1=X_2951.1.2.3.0 kv=0.38 kW=9.473663702775266 pf=0.942 status=variable model=1 CVRwatts=0.8 CVRvars=3 Class=1 conn=wye
New Load.Carga_IDSeta_2993 phases=3 bus1=X_2993.1.2.3.0 kv=0.38 kW=2.6372280162809942 pf=0.942 status=variable model=1 CVRwatts=0.8 CVRvars=3 Class=1 conn=wye
New Load.Carga_IDSeta_1357 phases=3 bus1=X_1357.1.2.3.0 kv=0.38 kW=1.4678698916151236 pf=0.942 status=variable model=1 CVRwatts=0.8 CVRvars=3 Class=1 conn=wye
New Load.Carga_IDSeta_2548 phases=3 bus1=X_2548.1.2.3.0 kv=0.38 kW=2.7247615419277675 pf=0.942 status=variable model=1 CVRwatts=0.8 CVRvars=3 Class=1 conn=wye
New Load.Carga_IDSeta_1326 phases=3 bus1=X_1326.1.2.3.0 kv=0.38 kW=0.9449131871100412 pf=0.942 status=variable model=1 CVRwatts=0.8 CVRvars=3 Class=1 conn=wye
New Load.Carga_IDSeta_1488 phases=3 bus1=X_1488.1.2.3.0 kv=0.38 kW=34.684216868796234 pf=0.942 status=variable model=1 CVRwatts=0.8 CVRvars=3 Class=1 conn=wye
New Load.Carga_IDSeta_1231 phases=3 bus1=X_1231.1.2.3.0 kv=0.38 kW=5.354732202392208 pf=0.905 status=variable model=1 CVRwatts=0.8 CVRvars=3 Class=1 conn=wye
New Load.Carga_IDSeta_401 phases=3 bus1=X_401.1.2.3.0 kv=0.38 kW=1.746999190145401 pf=0.905 status=variable model=1 CVRwatts=0.8 CVRvars=3 Class=1 conn=wye
New Load.Carga_IDSeta_1236 phases=3 bus1=X_1236.1.2.3.0 kv=0.38 kW=13.716767793342592 pf=0.905 status=variable model=1 CVRwatts=0.8 CVRvars=3 Class=1 conn=wye
New Load.Carga_IDSeta_967 phases=3 bus1=X_967.1.2.3.0 kv=0.38 kW=63.99366144203525 pf=0.905 status=variable model=1 CVRwatts=0.8 CVRvars=3 Class=1 conn=wye
New Load.Carga_IDSeta_2998 phases=3 bus1=X_2998.1.2.3.0 kv=0.38 kW=4.336894417316992 pf=0.905 status=variable model=1 CVRwatts=0.8 CVRvars=3 Class=1 conn=wye
New Load.Carga_IDSeta_1000 phases=3 bus1=X_1000.1.2.3.0 kv=0.38 kW=1.5372078161187548 pf=0.905 status=variable model=1 CVRwatts=0.8 CVRvars=3 Class=1 conn=wye
New Load.Carga_IDSeta_2748 phases=3 bus1=X_2748.1.2.3.0 kv=0.38 kW=25.32827745432616 pf=0.92 status=variable model=1 CVRwatts=0.8 CVRvars=3 Class=1 conn=wye
New Load.Carga_IDSeta_604 phases=3 bus1=X_604.1.2.3.0 kv=0.38 kW=48.915916414191884 pf=0.92 status=variable model=1 CVRwatts=0.8 CVRvars=3 Class=1 conn=wye
New Load.Carga_IDSeta_835 phases=3 bus1=X_835.1.2.3.0 kv=0.38 kW=55.03953976851634 pf=0.92 status=variable model=1 CVRwatts=0.8 CVRvars=3 Class=1 conn=wye
New Load.Carga_IDSeta_659 phases=3 bus1=X_659.1.2.3.0 kv=0.38 kW=7.208923664878798 pf=0.92 status=variable model=1 CVRwatts=0.8 CVRvars=3 Class=1 conn=wye
New Load.Carga_IDSeta_47 phases=3 bus1=X_47.1.2.3.0 kv=0.38 kW=48.071261463083104 pf=0.919 status=variable model=1 CVRwatts=0.8 CVRvars=3 Class=1 conn=wye
New Load.Carga_IDSeta_39 phases=3 bus1=X_39.1.2.3.0 kv=0.38 kW=10.863370330125523 pf=0.92 status=variable model=1 CVRwatts=0.8 CVRvars=3 Class=1 conn=wye
New Load.Carga_IDSeta_2955 phases=3 bus1=X_2955.1.2.3.0 kv=0.38 kW=89.38744083098459 pf=0.942 status=variable model=1 CVRwatts=0.8 CVRvars=3 Class=1 conn=wye
New Load.Carga_IDSeta_609 phases=3 bus1=X_609.1.2.3.0 kv=0.38 kW=14.478045141976324 pf=0.942 status=variable model=1 CVRwatts=0.8 CVRvars=3 Class=1 conn=wye
New Load.Carga_IDSeta_2928 phases=3 bus1=X_2928.1.2.3.0 kv=0.38 kW=72.20169196233473 pf=0.942 status=variable model=1 CVRwatts=0.8 CVRvars=3 Class=1 conn=wye
New Load.Carga_IDSeta_2298 phases=3 bus1=X_2298.1.2.3.0 kv=0.38 kW=0.7631127876898196 pf=0.942 status=variable model=1 CVRwatts=0.8 CVRvars=3 Class=1 conn=wye
New Load.Carga_IDSeta_1289 phases=3 bus1=X_1289.1.2.3.0 kv=0.38 kW=57.258798910186506 pf=0.942 status=variable model=1 CVRwatts=0.8 CVRvars=3 Class=1 conn=wye
New Load.Carga_IDSeta_2923 phases=3 bus1=X_2923.1.2.3.0 kv=0.38 kW=16.532482597989386 pf=0.905 status=variable model=1 CVRwatts=0.8 CVRvars=3 Class=1 conn=wye
New Load.Carga_IDSeta_2958 phases=3 bus1=X_2958.1.2.3.0 kv=0.38 kW=8.615862344977801 pf=0.905 status=variable model=1 CVRwatts=0.8 CVRvars=3 Class=1 conn=wye
New Load.Carga_IDSeta_2981 phases=3 bus1=X_2981.1.2.3.0 kv=0.38 kW=0.8573796614632678 pf=0.942 status=variable model=1 CVRwatts=0.8 CVRvars=3 Class=1 conn=wye
New Load.Carga_IDSeta_67 phases=3 bus1=X_67.1.2.3.0 kv=0.38 kW=9.301761325101255 pf=0.942 status=variable model=1 CVRwatts=0.8 CVRvars=3 Class=1 conn=wye
New Load.Carga_IDSeta_5 phases=3 bus1=X_5.1.2.3.0 kv=0.38 kW=23.93848903792955 pf=0.942 status=variable model=1 CVRwatts=0.8 CVRvars=3 Class=1 conn=wye
New Load.Carga_IDSeta_2991 phases=3 bus1=X_2991.1.2.3.0 kv=0.38 kW=1.357891872212767 pf=0.942 status=variable model=1 CVRwatts=0.8 CVRvars=3 Class=1 conn=wye
New Load.Carga_IDSeta_2933 phases=3 bus1=X_2933.1.2.3.0 kv=0.38 kW=140.05194765581558 pf=0.92 status=variable model=1 CVRwatts=0.8 CVRvars=3 Class=1 conn=wye
New Load.Carga_IDSeta_66 phases=3 bus1=X_66.1.2.3.0 kv=0.38 kW=134.78872989021454 pf=0.92 status=variable model=1 CVRwatts=0.8 CVRvars=3 Class=1 conn=wye
New Load.Carga_IDSeta_45 phases=3 bus1=X_45.1.2.3.0 kv=0.38 kW=12.635054959629633 pf=0.92 status=variable model=1 CVRwatts=0.8 CVRvars=3 Class=1 conn=wye
New Load.Carga_IDSeta_43 phases=3 bus1=X_43.1.2.3.0 kv=0.38 kW=12.905343314809988 pf=0.92 status=variable model=1 CVRwatts=0.8 CVRvars=3 Class=1 conn=wye
New Load.Carga_IDSeta_3005 phases=3 bus1=X_3005.1.2.3.0 kv=0.38 kW=0.3843019540296887 pf=0.905 status=variable model=1 CVRwatts=0.8 CVRvars=3 Class=1 conn=wye
New Load.Carga_IDSeta_278 phases=3 bus1=X_278.1.2.3.0 kv=0.38 kW=17.978020338244473 pf=0.905 status=variable model=1 CVRwatts=0.8 CVRvars=3 Class=1 conn=wye
New Load.Carga_IDSeta_3003 phases=3 bus1=X_3003.1.2.3.0 kv=0.38 kW=6.220001517137411 pf=0.92 status=variable model=1 CVRwatts=0.8 CVRvars=3 Class=1 conn=wye
New Load.Carga_IDSeta_20 phases=3 bus1=X_20.1.2.3.0 kv=0.38 kW=45.37604609348016 pf=0.92 status=variable model=1 CVRwatts=0.8 CVRvars=3 Class=1 conn=wye
New Load.Carga_IDSeta_2953 phases=3 bus1=X_2953.1.2.3.0 kv=0.38 kW=0.5998179936879122 pf=0.92 status=variable model=1 CVRwatts=0.8 CVRvars=3 Class=1 conn=wye
New Load.Carga_IDSeta_25 phases=3 bus1=X_25.1.2.3.0 kv=0.38 kW=5.468710967142262 pf=0.92 status=variable model=1 CVRwatts=0.8 CVRvars=3 Class=1 conn=wye
New Load.Carga_IDSeta_72 phases=3 bus1=X_72.1.2.3.0 kv=0.38 kW=88.80784900519262 pf=0.919 status=variable model=1 CVRwatts=0.8 CVRvars=3 Class=1 conn=wye
New Load.Carga_IDSeta_71 phases=3 bus1=X_71.1.2.3.0 kv=0.38 kW=140.6030018540132 pf=0.919 status=variable model=1 CVRwatts=0.8 CVRvars=3 Class=1 conn=wye
New Load.Carga_IDSeta_2897 phases=3 bus1=X_2897.1.2.3.0 kv=0.38 kW=0.5633567932651316 pf=0.942 status=variable model=1 CVRwatts=0.8 CVRvars=3 Class=1 conn=wye
New Load.Carga_IDSeta_3004 phases=3 bus1=X_3004.1.2.3.0 kv=0.38 kW=20.462644956964958 pf=0.942 status=variable model=1 CVRwatts=0.8 CVRvars=3 Class=1 conn=wye
New Load.Carga_IDSeta_645 phases=3 bus1=X_645.1.2.3.0 kv=0.38 kW=91.43976533999509 pf=0.942 status=variable model=1 CVRwatts=0.8 CVRvars=3 Class=1 conn=wye
New Load.Carga_IDSeta_3021 phases=3 bus1=X_3021.1.2.3.0 kv=0.38 kW=56.72538007589914 pf=0.92 status=variable model=1 CVRwatts=0.8 CVRvars=3 Class=1 conn=wye
New Load.Carga_IDSeta_207 phases=3 bus1=X_207.1.2.3.0 kv=0.38 kW=119.19901592464076 pf=0.92 status=variable model=1 CVRwatts=0.8 CVRvars=3 Class=1 conn=wye
New Load.Carga_IDSeta_209 phases=3 bus1=X_209.1.2.3.0 kv=0.38 kW=132.17655955350577 pf=0.92 status=variable model=1 CVRwatts=0.8 CVRvars=3 Class=1 conn=wye
New Load.Carga_IDSeta_236 phases=3 bus1=X_236.1.2.3.0 kv=0.38 kW=83.31758220903879 pf=0.905 status=variable model=1 CVRwatts=0.8 CVRvars=3 Class=1 conn=wye
New Load.Carga_IDSeta_2666 phases=3 bus1=X_2666.1.2.3.0 kv=0.38 kW=87.54773441531945 pf=0.905 status=variable model=1 CVRwatts=0.8 CVRvars=3 Class=1 conn=wye
New Load.Carga_IDSeta_439 phases=3 bus1=X_439.1.2.3.0 kv=0.38 kW=9.197001885217817 pf=0.905 status=variable model=1 CVRwatts=0.8 CVRvars=3 Class=1 conn=wye
New Load.Carga_IDSeta_2931 phases=3 bus1=X_2931.1.2.3.0 kv=0.38 kW=19.805610460115414 pf=0.905 status=variable model=1 CVRwatts=0.8 CVRvars=3 Class=1 conn=wye
New Load.Carga_IDSeta_1592 phases=3 bus1=X_1592.1.2.3.0 kv=0.38 kW=1.3354473784571843 pf=0.942 status=variable model=1 CVRwatts=0.8 CVRvars=3 Class=1 conn=wye
New Load.Carga_IDSeta_2478 phases=3 bus1=X_2478.1.2.3.0 kv=0.38 kW=57.21999238048312 pf=0.942 status=variable model=1 CVRwatts=0.8 CVRvars=3 Class=1 conn=wye
New Load.Carga_IDSeta_37 phases=3 bus1=X_37.1.2.3.0 kv=0.38 kW=4.643961225821383 pf=0.92 status=variable model=1 CVRwatts=0.8 CVRvars=3 Class=1 conn=wye
New Load.Carga_IDSeta_36 phases=3 bus1=X_36.1.2.3.0 kv=0.38 kW=15.598600158072871 pf=0.92 status=variable model=1 CVRwatts=0.8 CVRvars=3 Class=1 conn=wye
New Load.Carga_IDSeta_2941 phases=3 bus1=X_2941.1.2.3.0 kv=0.38 kW=3.7284982694057263 pf=0.92 status=variable model=1 CVRwatts=0.8 CVRvars=3 Class=1 conn=wye
New Load.Carga_IDSeta_35 phases=3 bus1=X_35.1.2.3.0 kv=0.38 kW=13.301593448664805 pf=0.92 status=variable model=1 CVRwatts=0.8 CVRvars=3 Class=1 conn=wye
New Load.Carga_IDSeta_34 phases=3 bus1=X_34.1.2.3.0 kv=0.38 kW=53.766629718825186 pf=0.92 status=variable model=1 CVRwatts=0.8 CVRvars=3 Class=1 conn=wye
New Load.Carga_IDSeta_3035 phases=3 bus1=X_3035.1.2.3.0 kv=0.38 kW=21.919741491577405 pf=0.942 status=variable model=1 CVRwatts=0.8 CVRvars=3 Class=1 conn=wye
New Load.Carga_IDSeta_33 phases=3 bus1=X_33.1.2.3.0 kv=0.38 kW=14.821428572424153 pf=0.92 status=variable model=1 CVRwatts=0.8 CVRvars=3 Class=1 conn=wye
New Load.Carga_IDSeta_2935 phases=3 bus1=X_2935.1.2.3.0 kv=0.38 kW=0.6109257343117626 pf=0.92 status=variable model=1 CVRwatts=0.8 CVRvars=3 Class=1 conn=wye
New Load.Carga_IDSeta_49 phases=3 bus1=X_49.1.2.3.0 kv=0.38 kW=141.5169503063447 pf=0.919 status=variable model=1 CVRwatts=0.8 CVRvars=3 Class=1 conn=wye
New Load.Carga_IDSeta_48 phases=3 bus1=X_48.1.2.3.0 kv=0.38 kW=107.58031923209342 pf=0.92 status=variable model=1 CVRwatts=0.8 CVRvars=3 Class=1 conn=wye
New Load.Carga_IDSeta_98 phases=3 bus1=X_98.1.2.3.0 kv=0.38 kW=50.88496708168077 pf=0.92 status=variable model=1 CVRwatts=0.8 CVRvars=3 Class=1 conn=wye