New Load.Carga_IDSeta_2943 phases=3 bus1=X_2943.1.2.3.0 kv=0.38 kW=73.00987831748687 pf=0.871 status=variable model=1 CVRwatts=0.8 CVRvars=3 Class=1 conn=wye
New Load.Carga_IDSeta_3012 phases=3 bus1=X_3012.1.2.3.0 kv=0.38 kW=39.672304875664956 pf=0.889 status=variable model=1 CVRwatts=0.8 CVRvars=3 Class=1 conn=wye
New Load.Carga_IDSeta_2982 phases=3 bus1=X_2982.1.2.3.0 kv=0.38 kW=5.699170837669155 pf=0.93 status=variable model=1 CVRwatts=0.8 CVRvars=3 Class=1 conn=wye
New Load.Carga_IDSeta_2986 phases=3 bus1=X_2986.1.2.3.0 kv=0.38 kW=30.891517565903698 pf=0.93 status=variable model=1 CVRwatts=0.8 CVRvars=3 Class=1 conn=wye
New Load.Carga_IDSeta_205 phases=3 bus1=X_205.1.2.3.0 kv=0.38 kW=2.071263526011315 pf=0.877 status=variable model=1 CVRwatts=0.8 CVRvars=3 Class=1 conn=wye
New Load.Carga_IDSeta_1354 phases=3 bus1=X_1354.1.2.3.0 kv=0.38 kW=3.564400430358549 pf=0.877 status=variable model=1 CVRwatts=0.8 CVRvars=3 Class=1 conn=wye
New Load.Carga_IDSeta_2073 phases=3 bus1=X_2073.1.2.3.0 kv=0.38 kW=3.169404337813689 pf=0.877 status=variable model=1 CVRwatts=0.8 CVRvars=3 Class=1 conn=wye
New Load.Carga_IDSeta_828 phases=3 bus1=X_828.1.2.3.0 kv=0.38 kW=6.413689849405351 pf=0.93 status=variable model=1 CVRwatts=0.8 CVRvars=3 Class=1 conn=wye
New Load.Carga_IDSeta_115 phases=3 bus1=X_115.1.2.3.0 kv=0.38 kW=12.402848293300163 pf=0.93 status=variable model=1 CVRwatts=0.8 CVRvars=3 Class=1 conn=wye
New Load.Carga_IDSeta_1245 phases=3 bus1=X_1245.1.2.3.0 kv=0.38 kW=12.745907666268115 pf=0.877 status=variable model=1 CVRwatts=0.8 CVRvars=3 Class=1 conn=wye
New Load.Carga_IDSeta_848 phases=3 bus1=X_848.1.2.3.0 kv=0.38 kW=9.267583866246218 pf=0.877 status=variable model=1 CVRwatts=0.8 CVRvars=3 Class=1 conn=wye
New Load.Carga_IDSeta_1945 phases=3 bus1=X_1945.1.2.3.0 kv=0.38 kW=45.50284754438296 pf=0.877 status=variable model=1 CVRwatts=0.8 CVRvars=3 Class=1 conn=wye
New Load.Carga_IDSeta_2970 phases=3 bus1=X_2970.1.2.3.0 kv=0.38 kW=3.7658168904000346 pf=0.877 status=variable model=1 CVRwatts=0.8 CVRvars=3 Class=1 conn=wye
New Load.Carga_IDSeta_2971 phases=3 bus1=X_2971.1.2.3.0 kv=0.38 kW=32.89196456241906 pf=0.877 status=variable model=1 CVRwatts=0.8 CVRvars=3 Class=1 conn=wye
New Load.Carga_IDSeta_3002 phases=3 bus1=X_3002.1.2.3.0 kv=0.38 kW=16.795768652475356 pf=0.93 status=variable model=1 CVRwatts=0.8 CVRvars=3 Class=1 conn=wye
New Load.Carga_IDSeta_1067 phases=3 bus1=X_1067.1.2.3.0 kv=0.38 kW=1.5897068323271513 pf=0.93 status=variable model=1 CVRwatts=0.8 CVRvars=3 Class=1 conn=wye
New Load.Carga_IDSeta_821 phases=3 bus1=X_821.1.2.3.0 kv=0.38 kW=21.675528564985253 pf=0.93 status=variable model=1 CVRwatts=0.8 CVRvars=3 Class=1 conn=wye
New Load.Carga_IDSeta_210 phases=3 bus1=X_210.1.2.3.0 kv=0.38 kW=0.48592517799975365 pf=0.93 status=variable model=1 CVRwatts=0.8 CVRvars=3 Class=1 conn=wye
New Load.Carga_IDSeta_784 phases=3 bus1=X_784.1.2.3.0 kv=0.38 kW=50.33505593828631 pf=0.93 status=variable model=1 CVRwatts=0.8 CVRvars=3 Class=1 conn=wye
New Load.Carga_IDSeta_2960 phases=3 bus1=X_2960.1.2.3.0 kv=0.38 kW=0.677943998338366 pf=0.93 status=variable model=1 CVRwatts=0.8 CVRvars=3 Class=1 conn=wye
New Load.Carga_IDSeta_646 phases=3 bus1=X_646.1.2.3.0 kv=0.38 kW=0.35268762919336966 pf=0.93 status=variable model=1 CVRwatts=0.8 CVRvars=3 Class=1 conn=wye
! New Load.Carga_IDSeta_2952 phases=3 bus1=X_2952.1.2.3.0 kv=0.38 kW=0.0 pf=0.93 status=variable model=1 CVRwatts=0.8 CVRvars=3 Class=1 conn=wye
New Load.Carga_IDSeta_2959 phases=3 bus1=X_2959.1.2.3.0 kv=0.38 kW=10.20181623703784 pf=0.93 status=variable model=1 CVRwatts=0.8 CVRvars=3 Class=1 conn=wye
New Load.Carga_IDSeta_2956 phases=3 bus1=X_2956.1.2.3.0 kv=0.38 kW=1.1286004134187828 pf=0.93 status=variable model=1 CVRwatts=0.8 CVRvars=3 Class=1 conn=wye
New Load.Carga_IDSeta_2088 phases=3 bus1=X_2088.1.2.3.0 kv=0.38 kW=8.504884967591604 pf=0.877 status=variable model=1 CVRwatts=0.8 CVRvars=3 Class=1 conn=wye
New Load.Carga_IDSeta_560 phases=3 bus1=X_560.1.2.3.0 kv=0.38 kW=28.22495532933022 pf=0.877 status=variable model=1 CVRwatts=0.8 CVRvars=3 Class=1 conn=wye
New Load.Carga_IDSeta_1638 phases=3 bus1=X_1638.1.2.3.0 kv=0.38 kW=5.874166168586245 pf=0.877 status=variable model=1 CVRwatts=0.8 CVRvars=3 Class=1 conn=wye
New Load.Carga_IDSeta_2396 phases=3 bus1=X_2396.1.2.3.0 kv=0.38 kW=0.8179421091691824 pf=0.877 status=variable model=1 CVRwatts=0.8 CVRvars=3 Class=1 conn=wye
New Load.Carga_IDSeta_1951 phases=3 bus1=X_1951.1.2.3.0 kv=0.38 kW=0.9298417286068302 pf=0.877 status=variable model=1 CVRwatts=0.8 CVRvars=3 Class=1 conn=wye
New Load.Carga_IDSeta_570 phases=3 bus1=X_570.1.2.3.0 kv=0.38 kW=16.484445544964444 pf=0.877 status=variable model=1 CVRwatts=0.8 CVRvars=3 Class=1 conn=wye
New Load.Carga_IDSeta_2940 phases=3 bus1=X_2940.1.2.3.0 kv=0.38 kW=53.13531678737357 pf=0.889 status=variable model=1 CVRwatts=0.8 CVRvars=3 Class=1 conn=wye
New Load.Carga_IDSeta_1594 phases=3 bus1=X_1594.1.2.3.0 kv=0.38 kW=79.66162487591096 pf=0.889 status=variable model=1 CVRwatts=0.8 CVRvars=3 Class=1 conn=wye
New Load.Carga_IDSeta_1595 phases=3 bus1=X_1595.1.2.3.0 kv=0.38 kW=102.05059680027736 pf=0.889 status=variable model=1 CVRwatts=0.8 CVRvars=3 Class=1 conn=wye
New Load.Carga_IDSeta_2937 phases=3 bus1=X_2937.1.2.3.0 kv=0.38 kW=111.6569490038629 pf=0.877 status=variable model=1 CVRwatts=0.8 CVRvars=3 Class=1 conn=wye
New Load.Carga_IDSeta_2947 phases=3 bus1=X_2947.1.2.3.0 kv=0.38 kW=6.236173356867755 pf=0.877 status=variable model=1 CVRwatts=0.8 CVRvars=3 Class=1 conn=wye
New Load.Carga_IDSeta_593 phases=3 bus1=X_593.1.2.3.0 kv=0.38 kW=8.570548732027524 pf=0.877 status=variable model=1 CVRwatts=0.8 CVRvars=3 Class=1 conn=wye
New Load.Carga_IDSeta_2948 phases=3 bus1=X_2948.1.2.3.0 kv=0.38 kW=4.640715177851678 pf=0.877 status=variable model=1 CVRwatts=0.8 CVRvars=3 Class=1 conn=wye
New Load.Carga_IDSeta_594 phases=3 bus1=X_594.1.2.3.0 kv=0.38 kW=9.51011155271715 pf=0.877 status=variable model=1 CVRwatts=0.8 CVRvars=3 Class=1 conn=wye
New Load.Carga_IDSeta_859 phases=3 bus1=X_859.1.2.3.0 kv=0.38 kW=4.829084533394375 pf=0.877 status=variable model=1 CVRwatts=0.8 CVRvars=3 Class=1 conn=wye
New Load.Carga_IDSeta_2074 phases=3 bus1=X_2074.1.2.3.0 kv=0.38 kW=0.6837596340175188 pf=0.877 status=variable model=1 CVRwatts=0.8 CVRvars=3 Class=1 conn=wye
New Load.Carga_IDSeta_596 phases=3 bus1=X_596.1.2.3.0 kv=0.38 kW=0.7479959253135279 pf=0.877 status=variable model=1 CVRwatts=0.8 CVRvars=3 Class=1 conn=wye
New Load.Carga_IDSeta_1874 phases=3 bus1=X_1874.1.2.3.0 kv=0.38 kW=23.109905101817414 pf=0.877 status=variable model=1 CVRwatts=0.8 CVRvars=3 Class=1 conn=wye
New Load.Carga_IDSeta_956 phases=3 bus1=X_956.1.2.3.0 kv=0.38 kW=6.061002220211981 pf=0.93 status=variable model=1 CVRwatts=0.8 CVRvars=3 Class=1 conn=wye
New Load.Carga_IDSeta_2258 phases=3 bus1=X_2258.1.2.3.0 kv=0.38 kW=6.733819042903636 pf=0.877 status=variable model=1 CVRwatts=0.8 CVRvars=3 Class=1 conn=wye
New Load.Carga_IDSeta_2286 phases=3 bus1=X_2286.1.2.3.0 kv=0.38 kW=18.066100058717577 pf=0.877 status=variable model=1 CVRwatts=0.8 CVRvars=3 Class=1 conn=wye
New Load.Carga_IDSeta_582 phases=3 bus1=X_582.1.2.3.0 kv=0.38 kW=4.332380979630835 pf=0.877 status=variable model=1 CVRwatts=0.8 CVRvars=3 Class=1 conn=wye
New Load.Carga_IDSeta_2962 phases=3 bus1=X_2962.1.2.3.0 kv=0.38 kW=0.45718766747288664 pf=0.93 status=variable model=1 CVRwatts=0.8 CVRvars=3 Class=1 conn=wye
New Load.Carga_IDSeta_957 phases=3 bus1=X_957.1.2.3.0 kv=0.38 kW=9.26262214300068 pf=0.93 status=variable model=1 CVRwatts=0.8 CVRvars=3 Class=1 conn=wye
New Load.Carga_IDSeta_958 phases=3 bus1=X_958.1.2.3.0 kv=0.38 kW=7.089334846901568 pf=0.93 status=variable model=1 CVRwatts=0.8 CVRvars=3 Class=1 conn=wye
New Load.Carga_IDSeta_2949 phases=3 bus1=X_2949.1.2.3.0 kv=0.38 kW=0.10188753732252899 pf=0.93 status=variable model=1 CVRwatts=0.8 CVRvars=3 Class=1 conn=wye
New Load.Carga_IDSeta_2966 phases=3 bus1=X_2966.1.2.3.0 kv=0.38 kW=0.14891255454831162 pf=0.93 status=variable model=1 CVRwatts=0.8 CVRvars=3 Class=1 conn=wye
New Load.Carga_IDSeta_2968 phases=3 bus1=X_2968.1.2.3.0 kv=0.38 kW=5.455542060925245 pf=0.93 status=variable model=1 CVRwatts=0.8 CVRvars=3 Class=1 conn=wye
New Load.Carga_IDSeta_520 phases=3 bus1=X_520.1.2.3.0 kv=0.38 kW=36.02709357212185 pf=0.93 status=variable model=1 CVRwatts=0.8 CVRvars=3 Class=1 conn=wye
New Load.Carga_IDSeta_644 phases=3 bus1=X_644.1.2.3.0 kv=0.38 kW=2.487100911052503 pf=0.93 status=variable model=1 CVRwatts=0.8 CVRvars=3 Class=1 conn=wye
New Load.Carga_IDSeta_1046 phases=3 bus1=X_1046.1.2.3.0 kv=0.38 kW=3.343898654436448 pf=0.877 status=variable model=1 CVRwatts=0.8 CVRvars=3 Class=1 conn=wye
New Load.Carga_IDSeta_2992 phases=3 bus1=X_2992.1.2.3.0 kv=0.38 kW=15.033033680496818 pf=0.877 status=variable model=1 CVRwatts=0.8 CVRvars=3 Class=1 conn=wye
New Load.Carga_IDSeta_524 phases=3 bus1=X_524.1.2.3.0 kv=0.38 kW=10.295178955474173 pf=0.877 status=variable model=1 CVRwatts=0.8 CVRvars=3 Class=1 conn=wye
New Load.Carga_IDSeta_1106 phases=3 bus1=X_1106.1.2.3.0 kv=0.38 kW=11.969747695904134 pf=0.877 status=variable model=1 CVRwatts=0.8 CVRvars=3 Class=1 conn=wye
New Load.Carga_IDSeta_2950 phases=3 bus1=X_2950.1.2.3.0 kv=0.38 kW=6.309331355288211 pf=0.877 status=variable model=1 CVRwatts=0.8 CVRvars=3 Class=1 conn=wye
! New Load.Carga_IDSeta_1213 phases=3 bus1=X_1213.1.2.3.0 kv=0.38 kW=0.0 pf=0.877 status=variable model=1 CVRwatts=0.8 CVRvars=3 Class=1 conn=wye
New Load.Carga_IDSeta_2643 phases=3 bus1=X_2643.1.2.3.0 kv=0.38 kW=18.65533242141017 pf=0.877 status=variable model=1 CVRwatts=0.8 CVRvars=3 Class=1 conn=wye
New Load.Carga_IDSeta_2967 phases=3 bus1=X_2967.1.2.3.0 kv=0.38 kW=2.3439108957343757 pf=0.877 status=variable model=1 CVRwatts=0.8 CVRvars=3 Class=1 conn=wye
New Load.Carga_IDSeta_2973 phases=3 bus1=X_2973.1.2.3.0 kv=0.38 kW=8.931699436425085 pf=0.877 status=variable model=1 CVRwatts=0.8 CVRvars=3 Class=1 conn=wye
New Load.Carga_IDSeta_2963 phases=3 bus1=X_2963.1.2.3.0 kv=0.38 kW=0.39840639594065824 pf=0.93 status=variable model=1 CVRwatts=0.8 CVRvars=3 Class=1 conn=wye
New Load.Carga_IDSeta_2989 phases=3 bus1=X_2989.1.2.3.0 kv=0.38 kW=2.5119196701438877 pf=0.93 status=variable model=1 CVRwatts=0.8 CVRvars=3 Class=1 conn=wye
New Load.Carga_IDSeta_968 phases=3 bus1=X_968.1.2.3.0 kv=0.38 kW=35.18516288871334 pf=0.93 status=variable model=1 CVRwatts=0.8 CVRvars=3 Class=1 conn=wye
New Load.Carga_IDSeta_1002 phases=3 bus1=X_1002.1.2.3.0 kv=0.38 kW=24.611064405210943 pf=0.877 status=variable model=1 CVRwatts=0.8 CVRvars=3 Class=1 conn=wye
New Load.Carga_IDSeta_2957 phases=3 bus1=X_2957.1.2.3.0 kv=0.38 kW=0.920720175242797 pf=0.877 status=variable model=1 CVRwatts=0.8 CVRvars=3 Class=1 conn=wye
New Load.Carga_IDSeta_2988 phases=3 bus1=X_2988.1.2.3.0 kv=0.38 kW=0.3411660804388038 pf=0.877 status=variable model=1 CVRwatts=0.8 CVRvars=3 Class=1 conn=wye
New Load.Carga_IDSeta_833 phases=3 bus1=X_833.1.2.3.0 kv=0.38 kW=11.816137311318277 pf=0.877 status=variable model=1 CVRwatts=0.8 CVRvars=3 Class=1 conn=wye
New Load.Carga_IDSeta_523 phases=3 bus1=X_523.1.2.3.0 kv=0.38 kW=6.255187299091372 pf=0.877 status=variable model=1 CVRwatts=0.8 CVRvars=3 Class=1 conn=wye
New Load.Carga_IDSeta_1356 phases=3 bus1=X_1356.1.2.3.0 kv=0.38 kW=1.3924630100745632 pf=0.93 status=variable model=1 CVRwatts=0.8 CVRvars=3 Class=1 conn=wye
New Load.Carga_IDSeta_1382 phases=3 bus1=X_1382.1.2.3.0 kv=0.38 kW=1.334987989020829 pf=0.93 status=variable model=1 CVRwatts=0.8 CVRvars=3 Class=1 conn=wye
New Load.Carga_IDSeta_635 phases=3 bus1=X_635.1.2.3.0 kv=0.38 kW=0.26551000402350416 pf=0.877 status=variable model=1 CVRwatts=0.8 CVRvars=3 Class=1 conn=wye
New Load.Carga_IDSeta_1355 phases=3 bus1=X_1355.1.2.3.0 kv=0.38 kW=42.63434026973119 pf=0.877 status=variable model=1 CVRwatts=0.8 CVRvars=3 Class=1 conn=wye
New Load.Carga_IDSeta_1243 phases=3 bus1=X_1243.1.2.3.0 kv=0.38 kW=2.0784008917108716 pf=0.877 status=variable model=1 CVRwatts=0.8 CVRvars=3 Class=1 conn=wye
New Load.Carga_IDSeta_1543 phases=3 bus1=X_1543.1.2.3.0 kv=0.38 kW=27.0535137717934 pf=0.877 status=variable model=1 CVRwatts=0.8 CVRvars=3 Class=1 conn=wye
New Load.Carga_IDSeta_2 phases=3 bus1=X_2.1.2.3.0 kv=0.38 kW=4.405982863960133 pf=0.93 status=variable model=1 CVRwatts=0.8 CVRvars=3 Class=1 conn=wye
New Load.Carga_IDSeta_2978 phases=3 bus1=X_2978.1.2.3.0 kv=0.38 kW=1.8601006813754015 pf=0.93 status=variable model=1 CVRwatts=0.8 CVRvars=3 Class=1 conn=wye
New Load.Carga_IDSeta_2724 phases=3 bus1=X_2724.1.2.3.0 kv=0.38 kW=0.4480439141234288 pf=0.93 status=variable model=1 CVRwatts=0.8 CVRvars=3 Class=1 conn=wye
New Load.Carga_IDSeta_2683 phases=3 bus1=X_2683.1.2.3.0 kv=0.38 kW=48.46128562684916 pf=0.877 status=variable model=1 CVRwatts=0.8 CVRvars=3 Class=1 conn=wye
New Load.Carga_IDSeta_1352 phases=3 bus1=X_1352.1.2.3.0 kv=0.38 kW=99.2684520623658 pf=0.877 status=variable model=1 CVRwatts=0.8 CVRvars=3 Class=1 conn=wye
New Load.Carga_IDSeta_1374 phases=3 bus1=X_1374.1.2.3.0 kv=0.38 kW=9.868121816206907 pf=0.877 status=variable model=1 CVRwatts=0.8 CVRvars=3 Class=1 conn=wye
New Load.Carga_IDSeta_2977 phases=3 bus1=X_2977.1.2.3.0 kv=0.38 kW=4.650707489831058 pf=0.877 status=variable model=1 CVRwatts=0.8 CVRvars=3 Class=1 conn=wye
New Load.Carga_IDSeta_2660 phases=3 bus1=X_2660.1.2.3.0 kv=0.38 kW=0.39826500603525633 pf=0.877 status=variable model=1 CVRwatts=0.8 CVRvars=3 Class=1 conn=wye
New Load.Carga_IDSeta_2975 phases=3 bus1=X_2975.1.2.3.0 kv=0.38 kW=55.733518988664564 pf=0.877 status=variable model=1 CVRwatts=0.8 CVRvars=3 Class=1 conn=wye
New Load.Carga_IDSeta_1353 phases=3 bus1=X_1353.1.2.3.0 kv=0.38 kW=15.896626380680361 pf=0.877 status=variable model=1 CVRwatts=0.8 CVRvars=3 Class=1 conn=wye
New Load.Carga_IDSeta_1318 phases=3 bus1=X_1318.1.2.3.0 kv=0.38 kW=0.23410559494545533 pf=0.877 status=variable model=1 CVRwatts=0.8 CVRvars=3 Class=1 conn=wye
New Load.Carga_IDSeta_540 phases=3 bus1=X_540.1.2.3.0 kv=0.38 kW=2.430247447107716 pf=0.889 status=variable model=1 CVRwatts=0.8 CVRvars=3 Class=1 conn=wye
New Load.Carga_IDSeta_541 phases=3 bus1=X_541.1.2.3.0 kv=0.38 kW=3.9964586672130715 pf=0.889 status=variable model=1 CVRwatts=0.8 CVRvars=3 Class=1 conn=wye
New Load.Carga_IDSeta_2395 phases=3 bus1=X_2395.1.2.3.0 kv=0.38 kW=2.208300947442801 pf=0.877 status=variable model=1 CVRwatts=0.8 CVRvars=3 Class=1 conn=wye
New Load.Carga_IDSeta_2228 phases=3 bus1=X_2228.1.2.3.0 kv=0.38 kW=0.42966941511330525 pf=0.877 status=variable model=1 CVRwatts=0.8 CVRvars=3 Class=1 conn=wye
New Load.Carga_IDSeta_651 phases=3 bus1=X_651.1.2.3.0 kv=0.38 kW=1.50027427004679 pf=0.877 status=variable model=1 CVRwatts=0.8 CVRvars=3 Class=1 conn=wye
New Load.Carga_IDSeta_31 phases=3 bus1=X_31.1.2.3.0 kv=0.38 kW=0.6113463870299716 pf=0.889 status=variable model=1 CVRwatts=0.8 CVRvars=3 Class=1 conn=wye
New Load.Carga_IDSeta_27 phases=3 bus1=X_27.1.2.3.0 kv=0.38 kW=4.130605531567077 pf=0.889 status=variable model=1 CVRwatts=0.8 CVRvars=3 Class=1 conn=wye
New Load.Carga_IDSeta_805 phases=3 bus1=X_805.1.2.3.0 kv=0.38 kW=3.595804839436598 pf=0.877 status=variable model=1 CVRwatts=0.8 CVRvars=3 Class=1 conn=wye
New Load.Carga_IDSeta_3020 phases=3 bus1=X_3020.1.2.3.0 kv=0.38 kW=36.43379664243561 pf=0.877 status=variable model=1 CVRwatts=0.8 CVRvars=3 Class=1 conn=wye
New Load.Carga_IDSeta_2543 phases=3 bus1=X_2543.1.2.3.0 kv=0.38 kW=1.2576038362618667 pf=0.877 status=variable model=1 CVRwatts=0.8 CVRvars=3 Class=1 conn=wye
New Load.Carga_IDSeta_1105 phases=3 bus1=X_1105.1.2.3.0 kv=0.38 kW=0.6552101712192927 pf=0.877 status=variable model=1 CVRwatts=0.8 CVRvars=3 Class=1 conn=wye
New Load.Carga_IDSeta_656 phases=3 bus1=X_656.1.2.3.0 kv=0.38 kW=10.945864036839946 pf=0.877 status=variable model=1 CVRwatts=0.8 CVRvars=3 Class=1 conn=wye
New Load.Carga_IDSeta_204 phases=3 bus1=X_204.1.2.3.0 kv=0.38 kW=4.89337792361598 pf=0.877 status=variable model=1 CVRwatts=0.8 CVRvars=3 Class=1 conn=wye
New Load.Carga_IDSeta_3001 phases=3 bus1=X_3001.1.2.3.0 kv=0.38 kW=23.720321165906288 pf=0.877 status=variable model=1 CVRwatts=0.8 CVRvars=3 Class=1 conn=wye
New Load.Carga_IDSeta_3014 phases=3 bus1=X_3014.1.2.3.0 kv=0.38 kW=3.5341643516875503 pf=0.889 status=variable model=1 CVRwatts=0.8 CVRvars=3 Class=1 conn=wye
New Load.Carga_IDSeta_2898 phases=3 bus1=X_2898.1.2.3.0 kv=0.38 kW=11.644412292586948 pf=0.877 status=variable model=1 CVRwatts=0.8 CVRvars=3 Class=1 conn=wye
New Load.Carga_IDSeta_2944 phases=3 bus1=X_2944.1.2.3.0 kv=0.38 kW=0.8430757794470466 pf=0.889 status=variable model=1 CVRwatts=0.8 CVRvars=3 Class=1 conn=wye
New Load.Carga_IDSeta_2377 phases=3 bus1=X_2377.1.2.3.0 kv=0.38 kW=6.011364702029212 pf=0.93 status=variable model=1 CVRwatts=0.8 CVRvars=3 Class=1 conn=wye
New Load.Carga_IDSeta_2583 phases=3 bus1=X_2583.1.2.3.0 kv=0.38 kW=0.475475174171802 pf=0.93 status=variable model=1 CVRwatts=0.8 CVRvars=3 Class=1 conn=wye
New Load.Carga_IDSeta_2549 phases=3 bus1=X_2549.1.2.3.0 kv=0.38 kW=0.13323754880638408 pf=0.93 status=variable model=1 CVRwatts=0.8 CVRvars=3 Class=1 conn=wye
New Load.Carga_IDSeta_3010 phases=3 bus1=X_3010.1.2.3.0 kv=0.38 kW=2.5171446720578645 pf=0.93 status=variable model=1 CVRwatts=0.8 CVRvars=3 Class=1 conn=wye
New Load.Carga_IDSeta_1228 phases=3 bus1=X_1228.1.2.3.0 kv=0.38 kW=0.4101626502471039 pf=0.93 status=variable model=1 CVRwatts=0.8 CVRvars=3 Class=1 conn=wye
New Load.Carga_IDSeta_104 phases=3 bus1=X_104.1.2.3.0 kv=0.38 kW=40.61393987733426 pf=0.93 status=variable model=1 CVRwatts=0.8 CVRvars=3 Class=1 conn=wye
New Load.Carga_IDSeta_11 phases=3 bus1=X_11.1.2.3.0 kv=0.38 kW=4.182614032137665 pf=0.93 status=variable model=1 CVRwatts=0.8 CVRvars=3 Class=1 conn=wye
New Load.Carga_IDSeta_42 phases=3 bus1=X_42.1.2.3.0 kv=0.38 kW=1.63375044000581 pf=0.889 status=variable model=1 CVRwatts=0.8 CVRvars=3 Class=1 conn=wye
New Load.Carga_IDSeta_2997 phases=3 bus1=X_2997.1.2.3.0 kv=0.38 kW=2.5159174541435156 pf=0.889 status=variable model=1 CVRwatts=0.8 CVRvars=3 Class=1 conn=wye
New Load.Carga_IDSeta_2930 phases=3 bus1=X_2930.1.2.3.0 kv=0.38 kW=35.73640059063781 pf=0.93 status=variable model=1 CVRwatts=0.8 CVRvars=3 Class=1 conn=wye
New Load.Carga_IDSeta_1759 phases=3 bus1=X_1759.1.2.3.0 kv=0.38 kW=6.725217526021376 pf=0.93 status=variable model=1 CVRwatts=0.8 CVRvars=3 Class=1 conn=wye
New Load.Carga_IDSeta_5006 phases=3 bus1=X_5006.1.2.3.0 kv=0.38 kW=11.709229289219872 pf=0.93 status=variable model=1 CVRwatts=0.8 CVRvars=3 Class=1 conn=wye
New Load.Carga_IDSeta_5000 phases=3 bus1=X_5000.1.2.3.0 kv=0.38 kW=0.067925024881686 pf=0.93 status=variable model=1 CVRwatts=0.8 CVRvars=3 Class=1 conn=wye
New Load.Carga_IDSeta_5026 phases=3 bus1=X_5026.1.2.3.0 kv=0.38 kW=0.17242506316120293 pf=0.93 status=variable model=1 CVRwatts=0.8 CVRvars=3 Class=1 conn=wye
New Load.Carga_IDSeta_5007 phases=3 bus1=X_5007.1.2.3.0 kv=0.38 kW=0.17373131363969688 pf=0.93 status=variable model=1 CVRwatts=0.8 CVRvars=3 Class=1 conn=wye
New Load.Carga_IDSeta_5008 phases=3 bus1=X_5008.1.2.3.0 kv=0.38 kW=0.37750638828475486 pf=0.93 status=variable model=1 CVRwatts=0.8 CVRvars=3 Class=1 conn=wye
New Load.Carga_IDSeta_5011 phases=3 bus1=X_5011.1.2.3.0 kv=0.38 kW=0.6674939945104145 pf=0.93 status=variable model=1 CVRwatts=0.8 CVRvars=3 Class=1 conn=wye
New Load.Carga_IDSeta_5009 phases=3 bus1=X_5009.1.2.3.0 kv=0.38 kW=10.304317712085263 pf=0.93 status=variable model=1 CVRwatts=0.8 CVRvars=3 Class=1 conn=wye
New Load.Carga_IDSeta_2644 phases=3 bus1=X_2644.1.2.3.0 kv=0.38 kW=0.8098752966662562 pf=0.93 status=variable model=1 CVRwatts=0.8 CVRvars=3 Class=1 conn=wye
New Load.Carga_IDSeta_2922 phases=3 bus1=X_2922.1.2.3.0 kv=0.38 kW=0.36836263493529714 pf=0.93 status=variable model=1 CVRwatts=0.8 CVRvars=3 Class=1 conn=wye
New Load.Carga_IDSeta_1973 phases=3 bus1=X_1973.1.2.3.0 kv=0.38 kW=16.134805910357414 pf=0.93 status=variable model=1 CVRwatts=0.8 CVRvars=3 Class=1 conn=wye
New Load.Carga_IDSeta_2951 phases=3 bus1=X_2951.1.2.3.0 kv=0.38 kW=5.513591832189518 pf=0.93 status=variable model=1 CVRwatts=0.8 CVRvars=3 Class=1 conn=wye
New Load.Carga_IDSeta_2993 phases=3 bus1=X_2993.1.2.3.0 kv=0.38 kW=1.5348443122304047 pf=0.93 status=variable model=1 CVRwatts=0.8 CVRvars=3 Class=1 conn=wye
New Load.Carga_IDSeta_1357 phases=3 bus1=X_1357.1.2.3.0 kv=0.38 kW=0.8542878129350508 pf=0.93 status=variable model=1 CVRwatts=0.8 CVRvars=3 Class=1 conn=wye
New Load.Carga_IDSeta_2548 phases=3 bus1=X_2548.1.2.3.0 kv=0.38 kW=1.5857880808916696 pf=0.93 status=variable model=1 CVRwatts=0.8 CVRvars=3 Class=1 conn=wye
New Load.Carga_IDSeta_1326 phases=3 bus1=X_1326.1.2.3.0 kv=0.38 kW=0.5499314514459578 pf=0.93 status=variable model=1 CVRwatts=0.8 CVRvars=3 Class=1 conn=wye
New Load.Carga_IDSeta_1488 phases=3 bus1=X_1488.1.2.3.0 kv=0.38 kW=20.185919706825093 pf=0.93 status=variable model=1 CVRwatts=0.8 CVRvars=3 Class=1 conn=wye
New Load.Carga_IDSeta_1231 phases=3 bus1=X_1231.1.2.3.0 kv=0.38 kW=4.077434276842674 pf=0.877 status=variable model=1 CVRwatts=0.8 CVRvars=3 Class=1 conn=wye
New Load.Carga_IDSeta_401 phases=3 bus1=X_401.1.2.3.0 kv=0.38 kW=1.3302764938147518 pf=0.877 status=variable model=1 CVRwatts=0.8 CVRvars=3 Class=1 conn=wye
New Load.Carga_IDSeta_1236 phases=3 bus1=X_1236.1.2.3.0 kv=0.38 kW=10.444820964731077 pf=0.877 status=variable model=1 CVRwatts=0.8 CVRvars=3 Class=1 conn=wye
New Load.Carga_IDSeta_967 phases=3 bus1=X_967.1.2.3.0 kv=0.38 kW=48.72885119219414 pf=0.877 status=variable model=1 CVRwatts=0.8 CVRvars=3 Class=1 conn=wye
New Load.Carga_IDSeta_2998 phases=3 bus1=X_2998.1.2.3.0 kv=0.38 kW=3.3023877355278266 pf=0.877 status=variable model=1 CVRwatts=0.8 CVRvars=3 Class=1 conn=wye
New Load.Carga_IDSeta_1000 phases=3 bus1=X_1000.1.2.3.0 kv=0.38 kW=1.1705279747272765 pf=0.877 status=variable model=1 CVRwatts=0.8 CVRvars=3 Class=1 conn=wye
New Load.Carga_IDSeta_2748 phases=3 bus1=X_2748.1.2.3.0 kv=0.38 kW=15.931593688456367 pf=0.889 status=variable model=1 CVRwatts=0.8 CVRvars=3 Class=1 conn=wye
New Load.Carga_IDSeta_604 phases=3 bus1=X_604.1.2.3.0 kv=0.38 kW=30.768318398860952 pf=0.889 status=variable model=1 CVRwatts=0.8 CVRvars=3 Class=1 conn=wye
New Load.Carga_IDSeta_835 phases=3 bus1=X_835.1.2.3.0 kv=0.38 kW=34.620103399170006 pf=0.889 status=variable model=1 CVRwatts=0.8 CVRvars=3 Class=1 conn=wye
New Load.Carga_IDSeta_659 phases=3 bus1=X_659.1.2.3.0 kv=0.38 kW=4.534443487799447 pf=0.889 status=variable model=1 CVRwatts=0.8 CVRvars=3 Class=1 conn=wye
New Load.Carga_IDSeta_47 phases=3 bus1=X_47.1.2.3.0 kv=0.38 kW=28.23126296185122 pf=0.871 status=variable model=1 CVRwatts=0.8 CVRvars=3 Class=1 conn=wye
New Load.Carga_IDSeta_39 phases=3 bus1=X_39.1.2.3.0 kv=0.38 kW=6.8331059030321395 pf=0.889 status=variable model=1 CVRwatts=0.8 CVRvars=3 Class=1 conn=wye
New Load.Carga_IDSeta_2955 phases=3 bus1=X_2955.1.2.3.0 kv=0.38 kW=52.022731556500524 pf=0.93 status=variable model=1 CVRwatts=0.8 CVRvars=3 Class=1 conn=wye
New Load.Carga_IDSeta_609 phases=3 bus1=X_609.1.2.3.0 kv=0.38 kW=8.426099336573149 pf=0.93 status=variable model=1 CVRwatts=0.8 CVRvars=3 Class=1 conn=wye
New Load.Carga_IDSeta_2928 phases=3 bus1=X_2928.1.2.3.0 kv=0.38 kW=42.020771642672244 pf=0.93 status=variable model=1 CVRwatts=0.8 CVRvars=3 Class=1 conn=wye
New Load.Carga_IDSeta_2298 phases=3 bus1=X_2298.1.2.3.0 kv=0.38 kW=0.44412516268794694 pf=0.93 status=variable model=1 CVRwatts=0.8 CVRvars=3 Class=1 conn=wye
New Load.Carga_IDSeta_1289 phases=3 bus1=X_1289.1.2.3.0 kv=0.38 kW=33.324134769498215 pf=0.93 status=variable model=1 CVRwatts=0.8 CVRvars=3 Class=1 conn=wye
New Load.Carga_IDSeta_2923 phases=3 bus1=X_2923.1.2.3.0 kv=0.38 kW=12.588885620877871 pf=0.877 status=variable model=1 CVRwatts=0.8 CVRvars=3 Class=1 conn=wye
New Load.Carga_IDSeta_2958 phases=3 bus1=X_2958.1.2.3.0 kv=0.38 kW=6.560666551032394 pf=0.877 status=variable model=1 CVRwatts=0.8 CVRvars=3 Class=1 conn=wye
New Load.Carga_IDSeta_2981 phases=3 bus1=X_2981.1.2.3.0 kv=0.38 kW=0.49898768278469324 pf=0.93 status=variable model=1 CVRwatts=0.8 CVRvars=3 Class=1 conn=wye
New Load.Carga_IDSeta_67 phases=3 bus1=X_67.1.2.3.0 kv=0.38 kW=5.413546108041666 pf=0.93 status=variable model=1 CVRwatts=0.8 CVRvars=3 Class=1 conn=wye
New Load.Carga_IDSeta_5 phases=3 bus1=X_5.1.2.3.0 kv=0.38 kW=13.931997353444334 pf=0.93 status=variable model=1 CVRwatts=0.8 CVRvars=3 Class=1 conn=wye
New Load.Carga_IDSeta_2991 phases=3 bus1=X_2991.1.2.3.0 kv=0.38 kW=0.7902815394888466 pf=0.93 status=variable model=1 CVRwatts=0.8 CVRvars=3 Class=1 conn=wye
New Load.Carga_IDSeta_2933 phases=3 bus1=X_2933.1.2.3.0 kv=0.38 kW=88.09326766705597 pf=0.889 status=variable model=1 CVRwatts=0.8 CVRvars=3 Class=1 conn=wye
New Load.Carga_IDSeta_66 phases=3 bus1=X_66.1.2.3.0 kv=0.38 kW=84.78268142262509 pf=0.889 status=variable model=1 CVRwatts=0.8 CVRvars=3 Class=1 conn=wye
New Load.Carga_IDSeta_45 phases=3 bus1=X_45.1.2.3.0 kv=0.38 kW=7.94750303138963 pf=0.889 status=variable model=1 CVRwatts=0.8 CVRvars=3 Class=1 conn=wye
New Load.Carga_IDSeta_43 phases=3 bus1=X_43.1.2.3.0 kv=0.38 kW=8.117515550449394 pf=0.889 status=variable model=1 CVRwatts=0.8 CVRvars=3 Class=1 conn=wye
New Load.Carga_IDSeta_3005 phases=3 bus1=X_3005.1.2.3.0 kv=0.38 kW=0.29263199368181914 pf=0.877 status=variable model=1 CVRwatts=0.8 CVRvars=3 Class=1 conn=wye
New Load.Carga_IDSeta_278 phases=3 bus1=X_278.1.2.3.0 kv=0.38 kW=13.68961015906348 pf=0.877 status=variable model=1 CVRwatts=0.8 CVRvars=3 Class=1 conn=wye
New Load.Carga_IDSeta_3003 phases=3 bus1=X_3003.1.2.3.0 kv=0.38 kW=3.9124072725162646 pf=0.889 status=variable model=1 CVRwatts=0.8 CVRvars=3 Class=1 conn=wye
New Load.Carga_IDSeta_20 phases=3 bus1=X_20.1.2.3.0 kv=0.38 kW=28.541724989139276 pf=0.889 status=variable model=1 CVRwatts=0.8 CVRvars=3 Class=1 conn=wye
New Load.Carga_IDSeta_2953 phases=3 bus1=X_2953.1.2.3.0 kv=0.38 kW=0.37728805599563964 pf=0.889 status=variable model=1 CVRwatts=0.8 CVRvars=3 Class=1 conn=wye
New Load.Carga_IDSeta_25 phases=3 bus1=X_25.1.2.3.0 kv=0.38 kW=3.4398423376886402 pf=0.889 status=variable model=1 CVRwatts=0.8 CVRvars=3 Class=1 conn=wye
New Load.Carga_IDSeta_72 phases=3 bus1=X_72.1.2.3.0 kv=0.38 kW=52.15502281477202 pf=0.871 status=variable model=1 CVRwatts=0.8 CVRvars=3 Class=1 conn=wye
New Load.Carga_IDSeta_71 phases=3 bus1=X_71.1.2.3.0 kv=0.38 kW=82.5732505816318 pf=0.871 status=variable model=1 CVRwatts=0.8 CVRvars=3 Class=1 conn=wye
New Load.Carga_IDSeta_2897 phases=3 bus1=X_2897.1.2.3.0 kv=0.38 kW=0.32786887010198434 pf=0.93 status=variable model=1 CVRwatts=0.8 CVRvars=3 Class=1 conn=wye
New Load.Carga_IDSeta_3004 phases=3 bus1=X_3004.1.2.3.0 kv=0.38 kW=11.909085612429447 pf=0.93 status=variable model=1 CVRwatts=0.8 CVRvars=3 Class=1 conn=wye
New Load.Carga_IDSeta_645 phases=3 bus1=X_645.1.2.3.0 kv=0.38 kW=53.21716699403539 pf=0.93 status=variable model=1 CVRwatts=0.8 CVRvars=3 Class=1 conn=wye
New Load.Carga_IDSeta_3021 phases=3 bus1=X_3021.1.2.3.0 kv=0.38 kW=35.6805040856864 pf=0.889 status=variable model=1 CVRwatts=0.8 CVRvars=3 Class=1 conn=wye
New Load.Carga_IDSeta_207 phases=3 bus1=X_207.1.2.3.0 kv=0.38 kW=74.97668537466434 pf=0.889 status=variable model=1 CVRwatts=0.8 CVRvars=3 Class=1 conn=wye
New Load.Carga_IDSeta_209 phases=3 bus1=X_209.1.2.3.0 kv=0.38 kW=83.13961522815025 pf=0.889 status=variable model=1 CVRwatts=0.8 CVRvars=3 Class=1 conn=wye
New Load.Carga_IDSeta_236 phases=3 bus1=X_236.1.2.3.0 kv=0.38 kW=63.44331569205694 pf=0.877 status=variable model=1 CVRwatts=0.8 CVRvars=3 Class=1 conn=wye
New Load.Carga_IDSeta_2666 phases=3 bus1=X_2666.1.2.3.0 kv=0.38 kW=66.66442310699821 pf=0.877 status=variable model=1 CVRwatts=0.8 CVRvars=3 Class=1 conn=wye
New Load.Carga_IDSeta_439 phases=3 bus1=X_439.1.2.3.0 kv=0.38 kW=7.003183224404901 pf=0.877 status=variable model=1 CVRwatts=0.8 CVRvars=3 Class=1 conn=wye
New Load.Carga_IDSeta_2931 phases=3 bus1=X_2931.1.2.3.0 kv=0.38 kW=15.081253723163021 pf=0.877 status=variable model=1 CVRwatts=0.8 CVRvars=3 Class=1 conn=wye
New Load.Carga_IDSeta_1592 phases=3 bus1=X_1592.1.2.3.0 kv=0.38 kW=0.7772190347039071 pf=0.93 status=variable model=1 CVRwatts=0.8 CVRvars=3 Class=1 conn=wye
New Load.Carga_IDSeta_2478 phases=3 bus1=X_2478.1.2.3.0 kv=0.38 kW=33.301549698725054 pf=0.93 status=variable model=1 CVRwatts=0.8 CVRvars=3 Class=1 conn=wye
New Load.Carga_IDSeta_37 phases=3 bus1=X_37.1.2.3.0 kv=0.38 kW=2.921071260694636 pf=0.889 status=variable model=1 CVRwatts=0.8 CVRvars=3 Class=1 conn=wye
New Load.Carga_IDSeta_36 phases=3 bus1=X_36.1.2.3.0 kv=0.38 kW=9.811585500642162 pf=0.889 status=variable model=1 CVRwatts=0.8 CVRvars=3 Class=1 conn=wye
New Load.Carga_IDSeta_2941 phases=3 bus1=X_2941.1.2.3.0 kv=0.38 kW=2.345241187577834 pf=0.889 status=variable model=1 CVRwatts=0.8 CVRvars=3 Class=1 conn=wye
New Load.Carga_IDSeta_35 phases=3 bus1=X_35.1.2.3.0 kv=0.38 kW=8.366758561268243 pf=0.889 status=variable model=1 CVRwatts=0.8 CVRvars=3 Class=1 conn=wye
New Load.Carga_IDSeta_34 phases=3 bus1=X_34.1.2.3.0 kv=0.38 kW=33.81943759194322 pf=0.889 status=variable model=1 CVRwatts=0.8 CVRvars=3 Class=1 conn=wye
New Load.Carga_IDSeta_3035 phases=3 bus1=X_3035.1.2.3.0 kv=0.38 kW=12.75710342306773 pf=0.93 status=variable model=1 CVRwatts=0.8 CVRvars=3 Class=1 conn=wye
New Load.Carga_IDSeta_33 phases=3 bus1=X_33.1.2.3.0 kv=0.38 kW=9.32274128487991 pf=0.889 status=variable model=1 CVRwatts=0.8 CVRvars=3 Class=1 conn=wye
New Load.Carga_IDSeta_2935 phases=3 bus1=X_2935.1.2.3.0 kv=0.38 kW=0.3842748718474107 pf=0.889 status=variable model=1 CVRwatts=0.8 CVRvars=3 Class=1 conn=wye
New Load.Carga_IDSeta_49 phases=3 bus1=X_49.1.2.3.0 kv=0.38 kW=83.10999370644375 pf=0.871 status=variable model=1 CVRwatts=0.8 CVRvars=3 Class=1 conn=wye
New Load.Carga_IDSeta_48 phases=3 bus1=X_48.1.2.3.0 kv=0.38 kW=67.66847599371177 pf=0.889 status=variable model=1 CVRwatts=0.8 CVRvars=3 Class=1 conn=wye
New Load.Carga_IDSeta_98 phases=3 bus1=X_98.1.2.3.0 kv=0.38 kW=32.00685960021133 pf=0.889 status=variable model=1 CVRwatts=0.8 CVRvars=3 Class=1 conn=wye
New Load.Carga_IDSeta_38 phases=3 bus1=X_38.1.2.3.0 kv=0.38 kW=10.702637415604702 pf=0.889 status=variable model=1 CVRwatts=0.8 CVRvars=3 Class=1 conn=wye