New Circuit.source bus1=substation115kv.1.2.3 pu=1.025 basekv=115.0 r1=0 r0=0 x1=0.001 x0=0.001 phases=3
