New Load.Carga_IDSeta_2943 phases=3 bus1=X_2943.1.2.3.0 kv=0.38 kW=132.69670473340852 pf=0.9 status=variable model=1 CVRwatts=0.8 CVRvars=3 Class=1 daily=334 conn=wye
New Load.Carga_IDSeta_3012 phases=3 bus1=X_3012.1.2.3.0 kv=0.38 kW=62.35991182416547 pf=0.9 status=variable model=1 CVRwatts=0.8 CVRvars=3 Class=1 daily=335 conn=wye
New Load.Carga_IDSeta_2982 phases=3 bus1=X_2982.1.2.3.0 kv=0.38 kW=9.498742880978787 pf=0.9 status=variable model=1 CVRwatts=0.8 CVRvars=3 Class=1 daily=333 conn=wye
New Load.Carga_IDSeta_2986 phases=3 bus1=X_2986.1.2.3.0 kv=0.38 kW=51.486539168523336 pf=0.9 status=variable model=1 CVRwatts=0.8 CVRvars=3 Class=1 daily=333 conn=wye
New Load.Carga_IDSeta_205 phases=3 bus1=X_205.1.2.3.0 kv=0.38 kW=2.781197589840519 pf=0.9 status=variable model=1 CVRwatts=0.8 CVRvars=3 Class=1 daily=332 conn=wye
New Load.Carga_IDSeta_1354 phases=3 bus1=X_1354.1.2.3.0 kv=0.38 kW=4.786113288650431 pf=0.9 status=variable model=1 CVRwatts=0.8 CVRvars=3 Class=1 daily=332 conn=wye
New Load.Carga_IDSeta_2073 phases=3 bus1=X_2073.1.2.3.0 kv=0.38 kW=4.255730666262581 pf=0.9 status=variable model=1 CVRwatts=0.8 CVRvars=3 Class=1 daily=332 conn=wye
New Load.Carga_IDSeta_828 phases=3 bus1=X_828.1.2.3.0 kv=0.38 kW=10.68962354930228 pf=0.9 status=variable model=1 CVRwatts=0.8 CVRvars=3 Class=1 daily=333 conn=wye
New Load.Carga_IDSeta_115 phases=3 bus1=X_115.1.2.3.0 kv=0.38 kW=20.67168545837579 pf=0.9 status=variable model=1 CVRwatts=0.8 CVRvars=3 Class=1 daily=333 conn=wye
New Load.Carga_IDSeta_1245 phases=3 bus1=X_1245.1.2.3.0 kv=0.38 kW=17.114619765462436 pf=0.9 status=variable model=1 CVRwatts=0.8 CVRvars=3 Class=1 daily=332 conn=wye
New Load.Carga_IDSeta_848 phases=3 bus1=X_848.1.2.3.0 kv=0.38 kW=12.444086225032116 pf=0.9 status=variable model=1 CVRwatts=0.8 CVRvars=3 Class=1 daily=332 conn=wye
New Load.Carga_IDSeta_1945 phases=3 bus1=X_1945.1.2.3.0 kv=0.38 kW=61.09913506033859 pf=0.9 status=variable model=1 CVRwatts=0.8 CVRvars=3 Class=1 daily=332 conn=wye
New Load.Carga_IDSeta_2970 phases=3 bus1=X_2970.1.2.3.0 kv=0.38 kW=5.056566065994674 pf=0.9 status=variable model=1 CVRwatts=0.8 CVRvars=3 Class=1 daily=332 conn=wye
New Load.Carga_IDSeta_2971 phases=3 bus1=X_2971.1.2.3.0 kv=0.38 kW=44.16582024320353 pf=0.9 status=variable model=1 CVRwatts=0.8 CVRvars=3 Class=1 daily=332 conn=wye
New Load.Carga_IDSeta_3002 phases=3 bus1=X_3002.1.2.3.0 kv=0.38 kW=27.99331560018915 pf=0.9 status=variable model=1 CVRwatts=0.8 CVRvars=3 Class=1 daily=333 conn=wye
New Load.Carga_IDSeta_1067 phases=3 bus1=X_1067.1.2.3.0 kv=0.38 kW=2.649546203564333 pf=0.9 status=variable model=1 CVRwatts=0.8 CVRvars=3 Class=1 daily=333 conn=wye
New Load.Carga_IDSeta_821 phases=3 bus1=X_821.1.2.3.0 kv=0.38 kW=36.12635565988946 pf=0.9 status=variable model=1 CVRwatts=0.8 CVRvars=3 Class=1 daily=333 conn=wye
New Load.Carga_IDSeta_210 phases=3 bus1=X_210.1.2.3.0 kv=0.38 kW=0.8098859389695412 pf=0.9 status=variable model=1 CVRwatts=0.8 CVRvars=3 Class=1 daily=333 conn=wye
New Load.Carga_IDSeta_784 phases=3 bus1=X_784.1.2.3.0 kv=0.38 kW=83.89286229100081 pf=0.9 status=variable model=1 CVRwatts=0.8 CVRvars=3 Class=1 daily=333 conn=wye
New Load.Carga_IDSeta_2960 phases=3 bus1=X_2960.1.2.3.0 kv=0.38 kW=1.12992151162686 pf=0.9 status=variable model=1 CVRwatts=0.8 CVRvars=3 Class=1 daily=333 conn=wye
New Load.Carga_IDSeta_646 phases=3 bus1=X_646.1.2.3.0 kv=0.38 kW=0.587820439574667 pf=0.9 status=variable model=1 CVRwatts=0.8 CVRvars=3 Class=1 daily=333 conn=wye
! New Load.Carga_IDSeta_2952 phases=3 bus1=X_2952.1.2.3.0 kv=0.38 kW=0.0 pf=0.9 status=variable model=1 CVRwatts=0.8 CVRvars=3 Class=1 daily=333 conn=wye
New Load.Carga_IDSeta_2959 phases=3 bus1=X_2959.1.2.3.0 kv=0.38 kW=17.003250492882035 pf=0.9 status=variable model=1 CVRwatts=0.8 CVRvars=3 Class=1 daily=333 conn=wye
New Load.Carga_IDSeta_2956 phases=3 bus1=X_2956.1.2.3.0 kv=0.38 kW=1.8810254066389347 pf=0.9 status=variable model=1 CVRwatts=0.8 CVRvars=3 Class=1 daily=333 conn=wye
New Load.Carga_IDSeta_2088 phases=3 bus1=X_2088.1.2.3.0 kv=0.38 kW=11.419969152494701 pf=0.9 status=variable model=1 CVRwatts=0.8 CVRvars=3 Class=1 daily=332 conn=wye
New Load.Carga_IDSeta_560 phases=3 bus1=X_560.1.2.3.0 kv=0.38 kW=37.89917446499789 pf=0.9 status=variable model=1 CVRwatts=0.8 CVRvars=3 Class=1 daily=332 conn=wye
New Load.Carga_IDSeta_1638 phases=3 bus1=X_1638.1.2.3.0 kv=0.38 kW=7.887560701585748 pf=0.9 status=variable model=1 CVRwatts=0.8 CVRvars=3 Class=1 daily=332 conn=wye
New Load.Carga_IDSeta_2396 phases=3 bus1=X_2396.1.2.3.0 kv=0.38 kW=1.098295119902562 pf=0.9 status=variable model=1 CVRwatts=0.8 CVRvars=3 Class=1 daily=332 conn=wye
New Load.Carga_IDSeta_1951 phases=3 bus1=X_1951.1.2.3.0 kv=0.38 kW=1.248548792588708 pf=0.9 status=variable model=1 CVRwatts=0.8 CVRvars=3 Class=1 daily=332 conn=wye
New Load.Carga_IDSeta_570 phases=3 bus1=X_570.1.2.3.0 kv=0.38 kW=22.134556826672927 pf=0.9 status=variable model=1 CVRwatts=0.8 CVRvars=3 Class=1 daily=332 conn=wye
New Load.Carga_IDSeta_2940 phases=3 bus1=X_2940.1.2.3.0 kv=0.38 kW=83.52208625121321 pf=0.9 status=variable model=1 CVRwatts=0.8 CVRvars=3 Class=1 daily=335 conn=wye
New Load.Carga_IDSeta_1594 phases=3 bus1=X_1594.1.2.3.0 kv=0.38 kW=125.218131857994 pf=0.9 status=variable model=1 CVRwatts=0.8 CVRvars=3 Class=1 daily=335 conn=wye
New Load.Carga_IDSeta_1595 phases=3 bus1=X_1595.1.2.3.0 kv=0.38 kW=160.4108013893683 pf=0.9 status=variable model=1 CVRwatts=0.8 CVRvars=3 Class=1 daily=335 conn=wye
New Load.Carga_IDSeta_2937 phases=3 bus1=X_2937.1.2.3.0 kv=0.38 kW=149.92782596645444 pf=0.9 status=variable model=1 CVRwatts=0.8 CVRvars=3 Class=1 daily=332 conn=wye
New Load.Carga_IDSeta_2947 phases=3 bus1=X_2947.1.2.3.0 kv=0.38 kW=8.373647337549606 pf=0.9 status=variable model=1 CVRwatts=0.8 CVRvars=3 Class=1 daily=332 conn=wye
New Load.Carga_IDSeta_593 phases=3 bus1=X_593.1.2.3.0 kv=0.38 kW=11.5081394413525 pf=0.9 status=variable model=1 CVRwatts=0.8 CVRvars=3 Class=1 daily=332 conn=wye
New Load.Carga_IDSeta_2948 phases=3 bus1=X_2948.1.2.3.0 kv=0.38 kW=6.231339327754325 pf=0.9 status=variable model=1 CVRwatts=0.8 CVRvars=3 Class=1 daily=332 conn=wye
New Load.Carga_IDSeta_594 phases=3 bus1=X_594.1.2.3.0 kv=0.38 kW=12.769741270182982 pf=0.9 status=variable model=1 CVRwatts=0.8 CVRvars=3 Class=1 daily=332 conn=wye
New Load.Carga_IDSeta_859 phases=3 bus1=X_859.1.2.3.0 kv=0.38 kW=6.484273052051606 pf=0.9 status=variable model=1 CVRwatts=0.8 CVRvars=3 Class=1 daily=332 conn=wye
New Load.Carga_IDSeta_2074 phases=3 bus1=X_2074.1.2.3.0 kv=0.38 kW=0.918121051367063 pf=0.9 status=variable model=1 CVRwatts=0.8 CVRvars=3 Class=1 daily=332 conn=wye
New Load.Carga_IDSeta_596 phases=3 bus1=X_596.1.2.3.0 kv=0.38 kW=1.004374594814908 pf=0.9 status=variable model=1 CVRwatts=0.8 CVRvars=3 Class=1 daily=332 conn=wye
New Load.Carga_IDSeta_1874 phases=3 bus1=X_1874.1.2.3.0 kv=0.38 kW=31.03091980497057 pf=0.9 status=variable model=1 CVRwatts=0.8 CVRvars=3 Class=1 daily=332 conn=wye
New Load.Carga_IDSeta_956 phases=3 bus1=X_956.1.2.3.0 kv=0.38 kW=10.10180310972761 pf=0.9 status=variable model=1 CVRwatts=0.8 CVRvars=3 Class=1 daily=333 conn=wye
New Load.Carga_IDSeta_2258 phases=3 bus1=X_2258.1.2.3.0 kv=0.38 kW=9.04186312236711 pf=0.9 status=variable model=1 CVRwatts=0.8 CVRvars=3 Class=1 daily=332 conn=wye
New Load.Carga_IDSeta_2286 phases=3 bus1=X_2286.1.2.3.0 kv=0.38 kW=24.258329908353964 pf=0.9 status=variable model=1 CVRwatts=0.8 CVRvars=3 Class=1 daily=332 conn=wye
New Load.Carga_IDSeta_582 phases=3 bus1=X_582.1.2.3.0 kv=0.38 kW=5.817322319204669 pf=0.9 status=variable model=1 CVRwatts=0.8 CVRvars=3 Class=1 daily=332 conn=wye
New Load.Carga_IDSeta_2962 phases=3 bus1=X_2962.1.2.3.0 kv=0.38 kW=0.7619894587079018 pf=0.9 status=variable model=1 CVRwatts=0.8 CVRvars=3 Class=1 daily=333 conn=wye
New Load.Carga_IDSeta_957 phases=3 bus1=X_957.1.2.3.0 kv=0.38 kW=15.43790643342209 pf=0.9 status=variable model=1 CVRwatts=0.8 CVRvars=3 Class=1 daily=333 conn=wye
New Load.Carga_IDSeta_958 phases=3 bus1=X_958.1.2.3.0 kv=0.38 kW=11.815713342508205 pf=0.9 status=variable model=1 CVRwatts=0.8 CVRvars=3 Class=1 daily=333 conn=wye
New Load.Carga_IDSeta_2949 phases=3 bus1=X_2949.1.2.3.0 kv=0.38 kW=0.16981479365490382 pf=0.9 status=variable model=1 CVRwatts=0.8 CVRvars=3 Class=1 daily=333 conn=wye
New Load.Carga_IDSeta_2966 phases=3 bus1=X_2966.1.2.3.0 kv=0.38 kW=0.24819085226485943 pf=0.9 status=variable model=1 CVRwatts=0.8 CVRvars=3 Class=1 daily=333 conn=wye
New Load.Carga_IDSeta_2968 phases=3 bus1=X_2968.1.2.3.0 kv=0.38 kW=9.092689583997041 pf=0.9 status=variable model=1 CVRwatts=0.8 CVRvars=3 Class=1 daily=333 conn=wye
New Load.Carga_IDSeta_520 phases=3 bus1=X_520.1.2.3.0 kv=0.38 kW=60.04594498706181 pf=0.9 status=variable model=1 CVRwatts=0.8 CVRvars=3 Class=1 daily=333 conn=wye
New Load.Carga_IDSeta_644 phases=3 bus1=X_644.1.2.3.0 kv=0.38 kW=4.145222655370986 pf=0.9 status=variable model=1 CVRwatts=0.8 CVRvars=3 Class=1 daily=333 conn=wye
New Load.Carga_IDSeta_1046 phases=3 bus1=X_1046.1.2.3.0 kv=0.38 kW=4.490033625175128 pf=0.9 status=variable model=1 CVRwatts=0.8 CVRvars=3 Class=1 daily=332 conn=wye
New Load.Carga_IDSeta_2992 phases=3 bus1=X_2992.1.2.3.0 kv=0.38 kW=20.18566759619591 pf=0.9 status=variable model=1 CVRwatts=0.8 CVRvars=3 Class=1 daily=332 conn=wye
New Load.Carga_IDSeta_524 phases=3 bus1=X_524.1.2.3.0 kv=0.38 kW=13.823893743294343 pf=0.9 status=variable model=1 CVRwatts=0.8 CVRvars=3 Class=1 daily=332 conn=wye
New Load.Carga_IDSeta_1106 phases=3 bus1=X_1106.1.2.3.0 kv=0.38 kW=16.07242778370917 pf=0.9 status=variable model=1 CVRwatts=0.8 CVRvars=3 Class=1 daily=332 conn=wye
New Load.Carga_IDSeta_2950 phases=3 bus1=X_2950.1.2.3.0 kv=0.38 kW=8.471880539809652 pf=0.9 status=variable model=1 CVRwatts=0.8 CVRvars=3 Class=1 daily=332 conn=wye
! New Load.Carga_IDSeta_1213 phases=3 bus1=X_1213.1.2.3.0 kv=0.38 kW=0.0 pf=0.9 status=variable model=1 CVRwatts=0.8 CVRvars=3 Class=1 daily=332 conn=wye
New Load.Carga_IDSeta_2643 phases=3 bus1=X_2643.1.2.3.0 kv=0.38 kW=25.049524078674 pf=0.9 status=variable model=1 CVRwatts=0.8 CVRvars=3 Class=1 daily=332 conn=wye
New Load.Carga_IDSeta_2967 phases=3 bus1=X_2967.1.2.3.0 kv=0.38 kW=3.1472959631413726 pf=0.9 status=variable model=1 CVRwatts=0.8 CVRvars=3 Class=1 daily=332 conn=wye
New Load.Carga_IDSeta_2973 phases=3 bus1=X_2973.1.2.3.0 kv=0.38 kW=11.993076030070382 pf=0.9 status=variable model=1 CVRwatts=0.8 CVRvars=3 Class=1 daily=332 conn=wye
New Load.Carga_IDSeta_2963 phases=3 bus1=X_2963.1.2.3.0 kv=0.38 kW=0.6640193854454571 pf=0.9 status=variable model=1 CVRwatts=0.8 CVRvars=3 Class=1 daily=333 conn=wye
New Load.Carga_IDSeta_2989 phases=3 bus1=X_2989.1.2.3.0 kv=0.38 kW=4.186587797415129 pf=0.9 status=variable model=1 CVRwatts=0.8 CVRvars=3 Class=1 daily=333 conn=wye
New Load.Carga_IDSeta_968 phases=3 bus1=X_968.1.2.3.0 kv=0.38 kW=58.64270874216012 pf=0.9 status=variable model=1 CVRwatts=0.8 CVRvars=3 Class=1 daily=333 conn=wye
New Load.Carga_IDSeta_1002 phases=3 bus1=X_1002.1.2.3.0 kv=0.38 kW=33.04660761298441 pf=0.9 status=variable model=1 CVRwatts=0.8 CVRvars=3 Class=1 daily=332 conn=wye
New Load.Carga_IDSeta_2957 phases=3 bus1=X_2957.1.2.3.0 kv=0.38 kW=1.2363007894191143 pf=0.9 status=variable model=1 CVRwatts=0.8 CVRvars=3 Class=1 daily=332 conn=wye
New Load.Carga_IDSeta_2988 phases=3 bus1=X_2988.1.2.3.0 kv=0.38 kW=0.45810215297855544 pf=0.9 status=variable model=1 CVRwatts=0.8 CVRvars=3 Class=1 daily=332 conn=wye
New Load.Carga_IDSeta_833 phases=3 bus1=X_833.1.2.3.0 kv=0.38 kW=15.866166810144223 pf=0.9 status=variable model=1 CVRwatts=0.8 CVRvars=3 Class=1 daily=332 conn=wye
New Load.Carga_IDSeta_523 phases=3 bus1=X_523.1.2.3.0 kv=0.38 kW=8.399178386410167 pf=0.9 status=variable model=1 CVRwatts=0.8 CVRvars=3 Class=1 daily=332 conn=wye
New Load.Carga_IDSeta_1356 phases=3 bus1=X_1356.1.2.3.0 kv=0.38 kW=2.3208021799503524 pf=0.9 status=variable model=1 CVRwatts=0.8 CVRvars=3 Class=1 daily=333 conn=wye
New Load.Carga_IDSeta_1382 phases=3 bus1=X_1382.1.2.3.0 kv=0.38 kW=2.225009219427073 pf=0.9 status=variable model=1 CVRwatts=0.8 CVRvars=3 Class=1 daily=333 conn=wye
New Load.Carga_IDSeta_635 phases=3 bus1=X_635.1.2.3.0 kv=0.38 kW=0.3565146462510934 pf=0.9 status=variable model=1 CVRwatts=0.8 CVRvars=3 Class=1 daily=332 conn=wye
New Load.Carga_IDSeta_1355 phases=3 bus1=X_1355.1.2.3.0 kv=0.38 kW=57.24743515903982 pf=0.9 status=variable model=1 CVRwatts=0.8 CVRvars=3 Class=1 daily=332 conn=wye
New Load.Carga_IDSeta_1243 phases=3 bus1=X_1243.1.2.3.0 kv=0.38 kW=2.7907813168902793 pf=0.9 status=variable model=1 CVRwatts=0.8 CVRvars=3 Class=1 daily=332 conn=wye
New Load.Carga_IDSeta_1543 phases=3 bus1=X_1543.1.2.3.0 kv=0.38 kW=36.326216511774774 pf=0.9 status=variable model=1 CVRwatts=0.8 CVRvars=3 Class=1 daily=332 conn=wye
New Load.Carga_IDSeta_2 phases=3 bus1=X_2.1.2.3.0 kv=0.38 kW=7.343401269205008 pf=0.9 status=variable model=1 CVRwatts=0.8 CVRvars=3 Class=1 daily=333 conn=wye
New Load.Carga_IDSeta_2978 phases=3 bus1=X_2978.1.2.3.0 kv=0.38 kW=3.1002085405715776 pf=0.9 status=variable model=1 CVRwatts=0.8 CVRvars=3 Class=1 daily=333 conn=wye
New Load.Carga_IDSeta_2724 phases=3 bus1=X_2724.1.2.3.0 kv=0.38 kW=0.7467496695337437 pf=0.9 status=variable model=1 CVRwatts=0.8 CVRvars=3 Class=1 daily=333 conn=wye
New Load.Carga_IDSeta_2683 phases=3 bus1=X_2683.1.2.3.0 kv=0.38 kW=65.07158992246436 pf=0.9 status=variable model=1 CVRwatts=0.8 CVRvars=3 Class=1 daily=332 conn=wye
New Load.Carga_IDSeta_1352 phases=3 bus1=X_1352.1.2.3.0 kv=0.38 kW=133.29312091673583 pf=0.9 status=variable model=1 CVRwatts=0.8 CVRvars=3 Class=1 daily=332 conn=wye
New Load.Carga_IDSeta_1374 phases=3 bus1=X_1374.1.2.3.0 kv=0.38 kW=13.25046101899897 pf=0.9 status=variable model=1 CVRwatts=0.8 CVRvars=3 Class=1 daily=332 conn=wye
New Load.Carga_IDSeta_2977 phases=3 bus1=X_2977.1.2.3.0 kv=0.38 kW=6.244756545623991 pf=0.9 status=variable model=1 CVRwatts=0.8 CVRvars=3 Class=1 daily=332 conn=wye
New Load.Carga_IDSeta_2660 phases=3 bus1=X_2660.1.2.3.0 kv=0.38 kW=0.5347719693766401 pf=0.9 status=variable model=1 CVRwatts=0.8 CVRvars=3 Class=1 daily=332 conn=wye
New Load.Carga_IDSeta_2975 phases=3 bus1=X_2975.1.2.3.0 kv=0.38 kW=74.8364110785572 pf=0.9 status=variable model=1 CVRwatts=0.8 CVRvars=3 Class=1 daily=332 conn=wye
New Load.Carga_IDSeta_1353 phases=3 bus1=X_1353.1.2.3.0 kv=0.38 kW=21.34526023430874 pf=0.9 status=variable model=1 CVRwatts=0.8 CVRvars=3 Class=1 daily=332 conn=wye
New Load.Carga_IDSeta_1318 phases=3 bus1=X_1318.1.2.3.0 kv=0.38 kW=0.3143462472321468 pf=0.9 status=variable model=1 CVRwatts=0.8 CVRvars=3 Class=1 daily=332 conn=wye
New Load.Carga_IDSeta_540 phases=3 bus1=X_540.1.2.3.0 kv=0.38 kW=3.820045671344429 pf=0.9 status=variable model=1 CVRwatts=0.8 CVRvars=3 Class=1 daily=335 conn=wye
New Load.Carga_IDSeta_541 phases=3 bus1=X_541.1.2.3.0 kv=0.38 kW=6.2819342328960595 pf=0.9 status=variable model=1 CVRwatts=0.8 CVRvars=3 Class=1 daily=335 conn=wye
New Load.Carga_IDSeta_2395 phases=3 bus1=X_2395.1.2.3.0 kv=0.38 kW=2.9652051491959215 pf=0.9 status=variable model=1 CVRwatts=0.8 CVRvars=3 Class=1 daily=332 conn=wye
New Load.Carga_IDSeta_2228 phases=3 bus1=X_2228.1.2.3.0 kv=0.38 kW=0.5769403683955866 pf=0.9 status=variable model=1 CVRwatts=0.8 CVRvars=3 Class=1 daily=332 conn=wye
New Load.Carga_IDSeta_651 phases=3 bus1=X_651.1.2.3.0 kv=0.38 kW=2.0144994258596727 pf=0.9 status=variable model=1 CVRwatts=0.8 CVRvars=3 Class=1 daily=332 conn=wye
New Load.Carga_IDSeta_31 phases=3 bus1=X_31.1.2.3.0 kv=0.38 kW=0.9609602191930162 pf=0.9 status=variable model=1 CVRwatts=0.8 CVRvars=3 Class=1 daily=335 conn=wye
New Load.Carga_IDSeta_27 phases=3 bus1=X_27.1.2.3.0 kv=0.38 kW=6.492796360993271 pf=0.9 status=variable model=1 CVRwatts=0.8 CVRvars=3 Class=1 daily=335 conn=wye
New Load.Carga_IDSeta_805 phases=3 bus1=X_805.1.2.3.0 kv=0.38 kW=4.828281687669378 pf=0.9 status=variable model=1 CVRwatts=0.8 CVRvars=3 Class=1 daily=332 conn=wye
New Load.Carga_IDSeta_3020 phases=3 bus1=X_3020.1.2.3.0 kv=0.38 kW=48.92162978692261 pf=0.9 status=variable model=1 CVRwatts=0.8 CVRvars=3 Class=1 daily=332 conn=wye
New Load.Carga_IDSeta_2543 phases=3 bus1=X_2543.1.2.3.0 kv=0.38 kW=1.6886527061678134 pf=0.9 status=variable model=1 CVRwatts=0.8 CVRvars=3 Class=1 daily=332 conn=wye
New Load.Carga_IDSeta_1105 phases=3 bus1=X_1105.1.2.3.0 kv=0.38 kW=0.8797861431680208 pf=0.9 status=variable model=1 CVRwatts=0.8 CVRvars=3 Class=1 daily=332 conn=wye
New Load.Carga_IDSeta_656 phases=3 bus1=X_656.1.2.3.0 kv=0.38 kW=14.697603803512816 pf=0.9 status=variable model=1 CVRwatts=0.8 CVRvars=3 Class=1 daily=332 conn=wye
New Load.Carga_IDSeta_204 phases=3 bus1=X_204.1.2.3.0 kv=0.38 kW=6.5706032653158495 pf=0.9 status=variable model=1 CVRwatts=0.8 CVRvars=3 Class=1 daily=332 conn=wye
New Load.Carga_IDSeta_3001 phases=3 bus1=X_3001.1.2.3.0 kv=0.38 kW=31.850558477174296 pf=0.9 status=variable model=1 CVRwatts=0.8 CVRvars=3 Class=1 daily=332 conn=wye
New Load.Carga_IDSeta_3014 phases=3 bus1=X_3014.1.2.3.0 kv=0.38 kW=5.555265267144389 pf=0.9 status=variable model=1 CVRwatts=0.8 CVRvars=3 Class=1 daily=335 conn=wye
New Load.Carga_IDSeta_2898 phases=3 bus1=X_2898.1.2.3.0 kv=0.38 kW=15.635582337326984 pf=0.9 status=variable model=1 CVRwatts=0.8 CVRvars=3 Class=1 daily=332 conn=wye
New Load.Carga_IDSeta_2944 phases=3 bus1=X_2944.1.2.3.0 kv=0.38 kW=1.3252099022776072 pf=0.9 status=variable model=1 CVRwatts=0.8 CVRvars=3 Class=1 daily=335 conn=wye
New Load.Carga_IDSeta_2377 phases=3 bus1=X_2377.1.2.3.0 kv=0.38 kW=10.019072825639327 pf=0.9 status=variable model=1 CVRwatts=0.8 CVRvars=3 Class=1 daily=333 conn=wye
New Load.Carga_IDSeta_2583 phases=3 bus1=X_2583.1.2.3.0 kv=0.38 kW=0.7924690370562179 pf=0.9 status=variable model=1 CVRwatts=0.8 CVRvars=3 Class=1 daily=333 conn=wye
New Load.Carga_IDSeta_2549 phases=3 bus1=X_2549.1.2.3.0 kv=0.38 kW=0.22206549939487422 pf=0.9 status=variable model=1 CVRwatts=0.8 CVRvars=3 Class=1 daily=333 conn=wye
New Load.Carga_IDSeta_3010 phases=3 bus1=X_3010.1.2.3.0 kv=0.38 kW=4.19529624837179 pf=0.9 status=variable model=1 CVRwatts=0.8 CVRvars=3 Class=1 daily=333 conn=wye
New Load.Carga_IDSeta_1228 phases=3 bus1=X_1228.1.2.3.0 kv=0.38 kW=0.6836134000979461 pf=0.9 status=variable model=1 CVRwatts=0.8 CVRvars=3 Class=1 daily=333 conn=wye
New Load.Carga_IDSeta_104 phases=3 bus1=X_104.1.2.3.0 kv=0.38 kW=67.69078928613166 pf=0.9 status=variable model=1 CVRwatts=0.8 CVRvars=3 Class=1 daily=333 conn=wye
New Load.Carga_IDSeta_11 phases=3 bus1=X_11.1.2.3.0 kv=0.38 kW=6.971114990807719 pf=0.9 status=variable model=1 CVRwatts=0.8 CVRvars=3 Class=1 daily=333 conn=wye
New Load.Carga_IDSeta_42 phases=3 bus1=X_42.1.2.3.0 kv=0.38 kW=2.5680517857672416 pf=0.9 status=variable model=1 CVRwatts=0.8 CVRvars=3 Class=1 daily=335 conn=wye
New Load.Carga_IDSeta_2997 phases=3 bus1=X_2997.1.2.3.0 kv=0.38 kW=3.9547082300606755 pf=0.9 status=variable model=1 CVRwatts=0.8 CVRvars=3 Class=1 daily=335 conn=wye
New Load.Carga_IDSeta_2930 phases=3 bus1=X_2930.1.2.3.0 kv=0.38 kW=59.561450318087935 pf=0.9 status=variable model=1 CVRwatts=0.8 CVRvars=3 Class=1 daily=333 conn=wye
New Load.Carga_IDSeta_1759 phases=3 bus1=X_1759.1.2.3.0 kv=0.38 kW=11.208843166465844 pf=0.9 status=variable model=1 CVRwatts=0.8 CVRvars=3 Class=1 daily=333 conn=wye
New Load.Carga_IDSeta_5006 phases=3 bus1=X_5006.1.2.3.0 kv=0.38 kW=19.51563859387895 pf=0.9 status=variable model=1 CVRwatts=0.8 CVRvars=3 Class=1 daily=333 conn=wye
New Load.Carga_IDSeta_5000 phases=3 bus1=X_5000.1.2.3.0 kv=0.38 kW=0.11320986243660254 pf=0.9 status=variable model=1 CVRwatts=0.8 CVRvars=3 Class=1 daily=333 conn=wye
New Load.Carga_IDSeta_5026 phases=3 bus1=X_5026.1.2.3.0 kv=0.38 kW=0.2873788815698372 pf=0.9 status=variable model=1 CVRwatts=0.8 CVRvars=3 Class=1 daily=333 conn=wye
New Load.Carga_IDSeta_5007 phases=3 bus1=X_5007.1.2.3.0 kv=0.38 kW=0.28955599430900264 pf=0.9 status=variable model=1 CVRwatts=0.8 CVRvars=3 Class=1 daily=333 conn=wye
New Load.Carga_IDSeta_5008 phases=3 bus1=X_5008.1.2.3.0 kv=0.38 kW=0.6291855816188104 pf=0.9 status=variable model=1 CVRwatts=0.8 CVRvars=3 Class=1 daily=333 conn=wye
New Load.Carga_IDSeta_5011 phases=3 bus1=X_5011.1.2.3.0 kv=0.38 kW=1.1125046097135365 pf=0.9 status=variable model=1 CVRwatts=0.8 CVRvars=3 Class=1 daily=333 conn=wye
New Load.Carga_IDSeta_5009 phases=3 bus1=X_5009.1.2.3.0 kv=0.38 kW=17.174088529524347 pf=0.9 status=variable model=1 CVRwatts=0.8 CVRvars=3 Class=1 daily=333 conn=wye
New Load.Carga_IDSeta_2644 phases=3 bus1=X_2644.1.2.3.0 kv=0.38 kW=1.3498098982825688 pf=0.9 status=variable model=1 CVRwatts=0.8 CVRvars=3 Class=1 daily=333 conn=wye
New Load.Carga_IDSeta_2922 phases=3 bus1=X_2922.1.2.3.0 kv=0.38 kW=0.6139457924446523 pf=0.9 status=variable model=1 CVRwatts=0.8 CVRvars=3 Class=1 daily=333 conn=wye
New Load.Carga_IDSeta_1973 phases=3 bus1=X_1973.1.2.3.0 kv=0.38 kW=26.891696554171435 pf=0.9 status=variable model=1 CVRwatts=0.8 CVRvars=3 Class=1 daily=333 conn=wye
New Load.Carga_IDSeta_2951 phases=3 bus1=X_2951.1.2.3.0 kv=0.38 kW=9.189440474125554 pf=0.9 status=variable model=1 CVRwatts=0.8 CVRvars=3 Class=1 daily=333 conn=wye
New Load.Carga_IDSeta_2993 phases=3 bus1=X_2993.1.2.3.0 kv=0.38 kW=2.5581074685193848 pf=0.9 status=variable model=1 CVRwatts=0.8 CVRvars=3 Class=1 daily=333 conn=wye
New Load.Carga_IDSeta_1357 phases=3 bus1=X_1357.1.2.3.0 kv=0.38 kW=1.4238317314141935 pf=0.9 status=variable model=1 CVRwatts=0.8 CVRvars=3 Class=1 daily=333 conn=wye
New Load.Carga_IDSeta_2548 phases=3 bus1=X_2548.1.2.3.0 kv=0.38 kW=2.6430148653468364 pf=0.9 status=variable model=1 CVRwatts=0.8 CVRvars=3 Class=1 daily=333 conn=wye
New Load.Carga_IDSeta_1326 phases=3 bus1=X_1326.1.2.3.0 kv=0.38 kW=0.9165644631886475 pf=0.9 status=variable model=1 CVRwatts=0.8 CVRvars=3 Class=1 daily=333 conn=wye
New Load.Carga_IDSeta_1488 phases=3 bus1=X_1488.1.2.3.0 kv=0.38 kW=33.64364160552737 pf=0.9 status=variable model=1 CVRwatts=0.8 CVRvars=3 Class=1 daily=333 conn=wye
New Load.Carga_IDSeta_1231 phases=3 bus1=X_1231.1.2.3.0 kv=0.38 kW=5.474991588987221 pf=0.9 status=variable model=1 CVRwatts=0.8 CVRvars=3 Class=1 daily=332 conn=wye
New Load.Carga_IDSeta_401 phases=3 bus1=X_401.1.2.3.0 kv=0.38 kW=1.7862342149884753 pf=0.9 status=variable model=1 CVRwatts=0.8 CVRvars=3 Class=1 daily=332 conn=wye
New Load.Carga_IDSeta_1236 phases=3 bus1=X_1236.1.2.3.0 kv=0.38 kW=14.024826164619624 pf=0.9 status=variable model=1 CVRwatts=0.8 CVRvars=3 Class=1 daily=332 conn=wye
New Load.Carga_IDSeta_967 phases=3 bus1=X_967.1.2.3.0 kv=0.38 kW=65.43086468210578 pf=0.9 status=variable model=1 CVRwatts=0.8 CVRvars=3 Class=1 daily=332 conn=wye
New Load.Carga_IDSeta_2998 phases=3 bus1=X_2998.1.2.3.0 kv=0.38 kW=4.4342946686537195 pf=0.9 status=variable model=1 CVRwatts=0.8 CVRvars=3 Class=1 daily=332 conn=wye
New Load.Carga_IDSeta_1000 phases=3 bus1=X_1000.1.2.3.0 kv=0.38 kW=1.571731236160734 pf=0.9 status=variable model=1 CVRwatts=0.8 CVRvars=3 Class=1 daily=332 conn=wye
New Load.Carga_IDSeta_2748 phases=3 bus1=X_2748.1.2.3.0 kv=0.38 kW=25.042476880136597 pf=0.9 status=variable model=1 CVRwatts=0.8 CVRvars=3 Class=1 daily=335 conn=wye
New Load.Carga_IDSeta_604 phases=3 bus1=X_604.1.2.3.0 kv=0.38 kW=48.3639563757173 pf=0.9 status=variable model=1 CVRwatts=0.8 CVRvars=3 Class=1 daily=335 conn=wye
New Load.Carga_IDSeta_835 phases=3 bus1=X_835.1.2.3.0 kv=0.38 kW=54.418481660741854 pf=0.9 status=variable model=1 CVRwatts=0.8 CVRvars=3 Class=1 daily=335 conn=wye
New Load.Carga_IDSeta_659 phases=3 bus1=X_659.1.2.3.0 kv=0.38 kW=7.127579225785914 pf=0.9 status=variable model=1 CVRwatts=0.8 CVRvars=3 Class=1 daily=335 conn=wye
New Load.Carga_IDSeta_47 phases=3 bus1=X_47.1.2.3.0 kv=0.38 kW=51.310804124470344 pf=0.9 status=variable model=1 CVRwatts=0.8 CVRvars=3 Class=1 daily=334 conn=wye
New Load.Carga_IDSeta_39 phases=3 bus1=X_39.1.2.3.0 kv=0.38 kW=10.740789649951656 pf=0.9 status=variable model=1 CVRwatts=0.8 CVRvars=3 Class=1 daily=335 conn=wye
New Load.Carga_IDSeta_2955 phases=3 bus1=X_2955.1.2.3.0 kv=0.38 kW=86.70569195000257 pf=0.9 status=variable model=1 CVRwatts=0.8 CVRvars=3 Class=1 daily=333 conn=wye
New Load.Carga_IDSeta_609 phases=3 bus1=X_609.1.2.3.0 kv=0.38 kW=14.043683435260546 pf=0.9 status=variable model=1 CVRwatts=0.8 CVRvars=3 Class=1 daily=333 conn=wye
New Load.Carga_IDSeta_2928 phases=3 bus1=X_2928.1.2.3.0 kv=0.38 kW=70.03553970621284 pf=0.9 status=variable model=1 CVRwatts=0.8 CVRvars=3 Class=1 daily=333 conn=wye
New Load.Carga_IDSeta_2298 phases=3 bus1=X_2298.1.2.3.0 kv=0.38 kW=0.7402183313162474 pf=0.9 status=variable model=1 CVRwatts=0.8 CVRvars=3 Class=1 daily=333 conn=wye
New Load.Carga_IDSeta_1289 phases=3 bus1=X_1289.1.2.3.0 kv=0.38 kW=55.54095445154372 pf=0.9 status=variable model=1 CVRwatts=0.8 CVRvars=3 Class=1 daily=333 conn=wye
New Load.Carga_IDSeta_2923 phases=3 bus1=X_2923.1.2.3.0 kv=0.38 kW=16.903777770367704 pf=0.9 status=variable model=1 CVRwatts=0.8 CVRvars=3 Class=1 daily=332 conn=wye
New Load.Carga_IDSeta_2958 phases=3 bus1=X_2958.1.2.3.0 kv=0.38 kW=8.80936190413992 pf=0.9 status=variable model=1 CVRwatts=0.8 CVRvars=3 Class=1 daily=332 conn=wye
New Load.Carga_IDSeta_2981 phases=3 bus1=X_2981.1.2.3.0 kv=0.38 kW=0.8316570663611956 pf=0.9 status=variable model=1 CVRwatts=0.8 CVRvars=3 Class=1 daily=333 conn=wye
New Load.Carga_IDSeta_67 phases=3 bus1=X_67.1.2.3.0 kv=0.38 kW=9.022695409432872 pf=0.9 status=variable model=1 CVRwatts=0.8 CVRvars=3 Class=1 daily=333 conn=wye
New Load.Carga_IDSeta_5 phases=3 bus1=X_5.1.2.3.0 kv=0.38 kW=23.220300715352412 pf=0.9 status=variable model=1 CVRwatts=0.8 CVRvars=3 Class=1 daily=333 conn=wye
New Load.Carga_IDSeta_2991 phases=3 bus1=X_2991.1.2.3.0 kv=0.38 kW=1.3171532071950873 pf=0.9 status=variable model=1 CVRwatts=0.8 CVRvars=3 Class=1 daily=333 conn=wye
New Load.Carga_IDSeta_2933 phases=3 bus1=X_2933.1.2.3.0 kv=0.38 kW=138.47162198508735 pf=0.9 status=variable model=1 CVRwatts=0.8 CVRvars=3 Class=1 daily=335 conn=wye
New Load.Carga_IDSeta_66 phases=3 bus1=X_66.1.2.3.0 kv=0.38 kW=133.26779359810496 pf=0.9 status=variable model=1 CVRwatts=0.8 CVRvars=3 Class=1 daily=335 conn=wye
New Load.Carga_IDSeta_45 phases=3 bus1=X_45.1.2.3.0 kv=0.38 kW=12.49248284950921 pf=0.9 status=variable model=1 CVRwatts=0.8 CVRvars=3 Class=1 daily=335 conn=wye
New Load.Carga_IDSeta_43 phases=3 bus1=X_43.1.2.3.0 kv=0.38 kW=12.759721310465743 pf=0.9 status=variable model=1 CVRwatts=0.8 CVRvars=3 Class=1 daily=335 conn=wye
New Load.Carga_IDSeta_3005 phases=3 bus1=X_3005.1.2.3.0 kv=0.38 kW=0.3929328090401835 pf=0.9 status=variable model=1 CVRwatts=0.8 CVRvars=3 Class=1 daily=332 conn=wye
New Load.Carga_IDSeta_278 phases=3 bus1=X_278.1.2.3.0 kv=0.38 kW=18.38178015598178 pf=0.9 status=variable model=1 CVRwatts=0.8 CVRvars=3 Class=1 daily=332 conn=wye
New Load.Carga_IDSeta_3003 phases=3 bus1=X_3003.1.2.3.0 kv=0.38 kW=6.149815930760151 pf=0.9 status=variable model=1 CVRwatts=0.8 CVRvars=3 Class=1 daily=335 conn=wye
New Load.Carga_IDSeta_20 phases=3 bus1=X_20.1.2.3.0 kv=0.38 kW=44.86402943339128 pf=0.9 status=variable model=1 CVRwatts=0.8 CVRvars=3 Class=1 daily=335 conn=wye
New Load.Carga_IDSeta_2953 phases=3 bus1=X_2953.1.2.3.0 kv=0.38 kW=0.5930497352734042 pf=0.9 status=variable model=1 CVRwatts=0.8 CVRvars=3 Class=1 daily=335 conn=wye
New Load.Carga_IDSeta_25 phases=3 bus1=X_25.1.2.3.0 kv=0.38 kW=5.407002833326039 pf=0.9 status=variable model=1 CVRwatts=0.8 CVRvars=3 Class=1 daily=335 conn=wye
New Load.Carga_IDSeta_72 phases=3 bus1=X_72.1.2.3.0 kv=0.38 kW=94.79264754723418 pf=0.9 status=variable model=1 CVRwatts=0.8 CVRvars=3 Class=1 daily=334 conn=wye
New Load.Carga_IDSeta_71 phases=3 bus1=X_71.1.2.3.0 kv=0.38 kW=150.07829767446893 pf=0.9 status=variable model=1 CVRwatts=0.8 CVRvars=3 Class=1 daily=334 conn=wye
New Load.Carga_IDSeta_2897 phases=3 bus1=X_2897.1.2.3.0 kv=0.38 kW=0.5464552975305239 pf=0.9 status=variable model=1 CVRwatts=0.8 CVRvars=3 Class=1 daily=333 conn=wye
New Load.Carga_IDSeta_3004 phases=3 bus1=X_3004.1.2.3.0 kv=0.38 kW=19.84873684297126 pf=0.9 status=variable model=1 CVRwatts=0.8 CVRvars=3 Class=1 daily=333 conn=wye
New Load.Carga_IDSeta_645 phases=3 bus1=X_645.1.2.3.0 kv=0.38 kW=88.69644383869544 pf=0.9 status=variable model=1 CVRwatts=0.8 CVRvars=3 Class=1 daily=333 conn=wye
New Load.Carga_IDSeta_3021 phases=3 bus1=X_3021.1.2.3.0 kv=0.38 kW=56.08529919293944 pf=0.9 status=variable model=1 CVRwatts=0.8 CVRvars=3 Class=1 daily=335 conn=wye
New Load.Carga_IDSeta_207 phases=3 bus1=X_207.1.2.3.0 kv=0.38 kW=117.85399168224903 pf=0.9 status=variable model=1 CVRwatts=0.8 CVRvars=3 Class=1 daily=335 conn=wye
New Load.Carga_IDSeta_209 phases=3 bus1=X_209.1.2.3.0 kv=0.38 kW=130.68509860899766 pf=0.9 status=variable model=1 CVRwatts=0.8 CVRvars=3 Class=1 daily=335 conn=wye
New Load.Carga_IDSeta_236 phases=3 bus1=X_236.1.2.3.0 kv=0.38 kW=85.18877220516265 pf=0.9 status=variable model=1 CVRwatts=0.8 CVRvars=3 Class=1 daily=332 conn=wye
New Load.Carga_IDSeta_2666 phases=3 bus1=X_2666.1.2.3.0 kv=0.38 kW=89.51392739017372 pf=0.9 status=variable model=1 CVRwatts=0.8 CVRvars=3 Class=1 daily=332 conn=wye
New Load.Carga_IDSeta_439 phases=3 bus1=X_439.1.2.3.0 kv=0.38 kW=9.403552981225076 pf=0.9 status=variable model=1 CVRwatts=0.8 CVRvars=3 Class=1 daily=332 conn=wye
New Load.Carga_IDSeta_2931 phases=3 bus1=X_2931.1.2.3.0 kv=0.38 kW=20.25041525614409 pf=0.9 status=variable model=1 CVRwatts=0.8 CVRvars=3 Class=1 daily=332 conn=wye
New Load.Carga_IDSeta_1592 phases=3 bus1=X_1592.1.2.3.0 kv=0.38 kW=1.295382079803433 pf=0.9 status=variable model=1 CVRwatts=0.8 CVRvars=3 Class=1 daily=333 conn=wye
New Load.Carga_IDSeta_2478 phases=3 bus1=X_2478.1.2.3.0 kv=0.38 kW=55.503312172283565 pf=0.9 status=variable model=1 CVRwatts=0.8 CVRvars=3 Class=1 daily=333 conn=wye
New Load.Carga_IDSeta_37 phases=3 bus1=X_37.1.2.3.0 kv=0.38 kW=4.591559447325108 pf=0.9 status=variable model=1 CVRwatts=0.8 CVRvars=3 Class=1 daily=335 conn=wye
New Load.Carga_IDSeta_36 phases=3 bus1=X_36.1.2.3.0 kv=0.38 kW=15.422587837860027 pf=0.9 status=variable model=1 CVRwatts=0.8 CVRvars=3 Class=1 daily=335 conn=wye