new loadshape.332 npts=168, interval=1, mult=(0.8431423689180682, 0.8698713913121683, 0.8558863207122942, 0.8358845219893875, 0.8219264322331143, 0.782570375033726, 0.7885691159276912, 0.8218095152441766, 0.8706628293911323, 0.8787570824714452, 0.8822915729831818, 0.87681446173217, 0.9053242198039392, 0.9367299217555535, 0.9542674700962316, 0.960796834247684, 0.9573252990376832, 0.9236891806817159, 0.8602841982192642, 0.8301915639895674, 0.8030128608687831, 0.8557424228797553, 0.8666876517672452, 0.8719579098839823, 0.92336316215487, 0.9173374404173036, 0.9055782894145157, 0.8932345534670383, 0.8762815900710494, 0.8161930029678927, 0.6968814641604459, 0.8204874539077254, 0.9062190844500404, 0.9326603111790629, 0.9085236981742961, 0.9106259555715441, 0.8975964565158737, 0.9553916719129417, 0.9729629463081212, 0.9467353179242737, 0.9602594657792967, 0.9658917168810143, 0.9111768144617322, 0.8657927871211438, 0.8191384117276732, 0.8613034895224391, 0.8933806997032107, 0.9282159816530263, 1.0, 0.9908414875438438, 0.9755973109092544, 0.9517342836586022, 0.9406571184459033, 0.9049974368198579, 0.9163144167640974, 0.858095737026711, 0.921965419552118, 0.9287405791887758, 0.9443595197409838, 0.94810684414066, 0.8806772191743861, 0.9228572713373504, 0.9419012501124201, 0.9154262973288964, 0.889985610216746, 0.8781702491231225, 0.8427578918967532, 0.8221287885601223, 0.8053781814911413, 0.8303916719129417, 0.8577322600953322, 0.8817901789729291, 0.9336496087777677, 0.9180794136163323, 0.897855022933717, 0.8701097220973109, 0.8581706988038492, 0.8107743502113499, 0.8257824444644302, 0.8819250831909343, 0.8947859519740984, 0.9196195701052252, 0.9048812842881554, 0.9183154959978415, 0.9134027340588181, 0.9055670473963485, 0.8973266480798632, 0.9126832448961236, 0.8793843870851695, 0.8854325928590701, 0.8302567676949365, 0.8057716521269898, 0.7717083370806727, 0.8288402734058817, 0.8424206313517402, 0.8739657343286267, 0.9225987049195071, 0.9167528554726143, 0.8971467757891897, 0.8818126630092633, 0.8626000539616872, 0.8379463081212338, 0.8604528284917707, 0.8616669664538177, 0.8851852684593937, 0.9137849626764997, 0.9058031297778577, 0.9096254159546722, 0.9080852594657792, 0.875337260545013, 0.8940889468477381, 0.9486464610126809, 0.9486914290853492, 0.9238128428815541, 0.8533253889738285, 0.8166764097490781, 0.7878743592049644, 0.8417685942980483, 0.8663324039931648, 0.8811606259555715, 0.8701861678208471, 0.8560661930029678, 0.8376112959798543, 0.8240759061066641, 0.8153341127799262, 0.7896123752135983, 0.791339149204065, 0.7766975447432323, 0.794585844050724, 0.7981113409479269, 0.7873729651947117, 0.7803939203165752, 0.8144707257846928, 0.8514704559762568, 0.8859159996402554, 0.839365050813922, 0.871598165302635, 0.864268369457685, 0.8027970141199747, 0.7612555085889019, 0.7365860239230146, 0.7854573252990377, 0.8060347153520999, 0.8210090835506789, 0.8370716791078334, 0.825182120694307, 0.8145696555445633, 0.7994513895134454, 0.7918787660760859, 0.755301735767605, 0.7390862487633779, 0.7223941001888659, 0.7479539526935874, 0.7498336181311268, 0.7606979044878136, 0.777129238240849, 0.8006385466318913, 0.8254879035884521, 0.8843151362532601, 0.9140390322870762, 0.9307851425487903, 0.9021584674880834, 0.8470725784692867, 0.8015289144707257, 0.758035794585844, 0.7976436729921754, 0.8202985880025182, 0.8705144347513264)
new loadshape.333 npts=168, interval=1, mult=(0.674204573834243, 0.702940525883906, 0.6830753862071426, 0.6649969674265939, 0.6471754254522102, 0.6412387170430625, 0.6290170894430769, 0.5986885011951907, 0.6372028969995361, 0.6407477969246138, 0.6670405651289736, 0.6873395411894823, 0.7308887223946627, 0.7994405793999072, 0.8428870098826216, 0.8920361054621999, 0.9051710728174391, 0.8863277319918657, 0.8222969067751258, 0.75833458204003, 0.684668022405366, 0.6992586249955404, 0.7179592564843555, 0.7328124442541654, 0.7574583467123336, 0.7379428449106282, 0.7179492668307824, 0.7003960184095045, 0.6801312925898177, 0.6352777480466659, 0.687402333297656, 0.6337578936101894, 0.5950907988155125, 0.644225623461415, 0.6796888936458668, 0.7073245567091226, 0.7846444753648008, 0.8459095936351636, 0.8899425594919548, 0.9074030468443397, 0.9201541260836991, 0.9092297263548468, 0.8409861215170003, 0.758378821934425, 0.6817367726283493, 0.7195595133611616, 0.7315661065325199, 0.7570159477683828, 0.7875462413928431, 0.7750924542438189, 0.7544376752649042, 0.7404711691462413, 0.7148405722644404, 0.7077812265867495, 0.6836728531164151, 0.6097399122337579, 0.6460832138142638, 0.6643500089193335, 0.6683078240393878, 0.6843673909165507, 0.6741517713796424, 0.7563594848192943, 0.7781940133433229, 0.8010417781583361, 0.7997288522601591, 0.8210567626386956, 0.7844375468265011, 0.7289164793606622, 0.6798244675157872, 0.7126690213707232, 0.7395982732170252, 0.7600271147739841, 0.7514788255021585, 0.7206107959613258, 0.6952584822862036, 0.6669592208070213, 0.6394876734810375, 0.639095222804952, 0.6364051518070569, 0.6105747618537942, 0.6204074351564451, 0.6189732063220237, 0.63231652930893, 0.658817653144957, 0.7159870134503551, 0.7763958757001677, 0.8229976096186092, 0.8198722751436013, 0.7738770559063827, 0.8058724892076063, 0.7782796389453781, 0.7203824610225124, 0.6511113489600057, 0.6792108173677263, 0.7011737842948376, 0.741353598059153, 0.7694673374005495, 0.7533697242142068, 0.7344892789610761, 0.7170073852081772, 0.6967069820543009, 0.7529201898034178, 0.7887259623960898, 0.6292126012344358, 0.6911555888544009, 0.7282742873452496, 0.7418958935388347, 0.7623960897641728, 0.8140497342038603, 0.8587248920760641, 0.905904598808377, 0.9585215312711834, 1.0, 0.9847301009668558, 0.8944878518677084, 0.8259516928895072, 0.7449284669449499, 0.7578151200542296, 0.7655499661065325, 0.7731278318884013, 0.7459302864889935, 0.7457133682971208, 0.7300210496271718, 0.7119140889792716, 0.6974148203646223, 0.6813628741660422, 0.6574105390845196, 0.5984829997502586, 0.6174290912982981, 0.6212251596560705, 0.6385843233793571, 0.6318313175639516, 0.6574105390845196, 0.7171600841985086, 0.786288486924257, 0.7724856398729887, 0.8229533697242143, 0.8333369010667523, 0.7955303435727282, 0.7247465125405829, 0.6527068393449642, 0.6625252417139391, 0.6760483784651611, 0.6962388954297335, 0.7011595133611617, 0.6949773448927896, 0.6838745584929894, 0.6734910271504513, 0.6574733311926932, 0.6437903599843019, 0.6241193050055299, 0.5819915087944628, 0.5824881372863819, 0.5977066609582932, 0.6067658496557138, 0.6260087766242107, 0.6662413928431268, 0.7362488850833065, 0.8006393378286774, 0.845729779870848, 0.8660630061721789, 0.8536472938742018, 0.8133518855471119, 0.7470148774483572, 0.6541910164472511, 0.6386813657283528, 0.6581240857683114, 0.6927325270255806)
new loadshape.334 npts=168, interval=1, mult=(0.7221869002363857, 0.7565346908832226, 0.7364737789831713, 0.7032819806000785, 0.674957206055621, 0.647995909565836, 0.6162920807119726, 0.5601404975212858, 0.5951522426990937, 0.6456009307219764, 0.6698174866060512, 0.7041000674328821, 0.7681538951752144, 0.8091234466353957, 0.867308390577181, 0.9046380484479322, 0.9096058510993043, 0.9353163046780636, 0.9843481611571779, 0.9413037517877124, 0.8401158956346473, 0.806052656929655, 0.7242676863111249, 0.7067855263840414, 0.7323655603227887, 0.7256296823244336, 0.7058666607385012, 0.6770039051789936, 0.6527502982608244, 0.5346167811543621, 0.47323062786682374, 0.5531422982015428, 0.56584339268909, 0.6349361610682555, 0.6777078748267865, 0.7143883985802044, 0.7816063846341952, 0.8267419543679464, 0.8730335163654418, 0.8844155940392296, 0.8795322677455929, 0.9021926801977044, 0.9380580812010464, 0.90064394697256, 0.8054598403841452, 0.8618366938621257, 0.7654249531304418, 0.741504805519122, 0.7604947054072279, 0.776095650949618, 0.7620656692528288, 0.7260322936813167, 0.697290591260402, 0.6731925986854294, 0.6425538536780562, 0.5920952952596907, 0.6047123876427392, 0.6542323396245989, 0.6820947172635587, 0.7184738827260669, 0.658700694336379, 0.7048736930247724, 0.7436364848942933, 0.7435179215851915, 0.7007832588607549, 0.8283647896612796, 0.8856234577507058, 0.8521441433430408, 0.7955968551082261, 0.7792054776248805, 0.7145810639574951, 0.6974634862059, 0.6776708237926921, 0.6598715070137607, 0.6338246300454246, 0.6086447472748965, 0.5879035783888729, 0.5709416149804741, 0.5532312206833693, 0.4954686585302596, 0.5185588629778657, 0.5755359432081749, 0.6230946505716976, 0.666881562664414, 0.7248219697811766, 0.7500240831721614, 0.7674528896101491, 0.7793166307271636, 0.7258001170812678, 0.8158193095169286, 0.8817701502048922, 0.8538929521522947, 0.7909358350191554, 0.7690757249034821, 0.7035917272451074, 0.6868298394208183, 0.6876746029981697, 0.6791750957769231, 0.6572557040066989, 0.6291191487154406, 0.5989003253080794, 0.5794411222017206, 0.5566028647859562, 0.4914671468480686, 0.5459025261395045, 0.6042949558722184, 0.6438358194577211, 0.6799605776997236, 0.737915805230124, 0.7848742858413178, 0.8439188137740925, 0.8924853092649816, 0.9087581234392252, 0.9416890825422938, 1.0, 0.9502182305908159, 0.852529474097622, 0.8184425227308094, 0.7348257489866542, 0.7102164521411792, 0.695913270939392, 0.6889832455223825, 0.6814722598907735, 0.6675529274022037, 0.6503434630860547, 0.6362937109574728, 0.6135769809335379, 0.5591682783866498, 0.5570874923119105, 0.5989521967558115, 0.6275496669112035, 0.6482508206804052, 0.6863926372185047, 0.7387324100215638, 0.8079733825371067, 0.832166225759361, 0.9007491719093881, 0.9349546865853027, 0.9718219475505561, 0.9255704006698827, 0.8325989818375831, 0.8023416253547637, 0.7399180431125834, 0.7125477032063965, 0.6913367272080564, 0.6795159652905913, 0.67065335793522, 0.6594787660523606, 0.6409591771706349, 0.6168315437683866, 0.5919747460151613, 0.5336949514260944, 0.5271917539218519, 0.545367509207182, 0.5849143009581398, 0.6123617070152428, 0.6691179630823497, 0.7457276452585793, 0.8229894256348694, 0.8801250842911026, 0.9081415942318951, 0.9158956346471631, 0.9011048618366939, 0.8444849535750543, 0.7482411874115407, 0.7160690334867247, 0.7089611631060624, 0.7467561819650387)
new loadshape.335 npts=168, interval=1, mult=(0.7749171251130113, 0.8220125154374789, 0.793040282217797, 0.7657698648592752, 0.7357930875548807, 0.7094799416182616, 0.6835331588184198, 0.6407100353954063, 0.6364082230796958, 0.6549745613983254, 0.6807617989611833, 0.6786463473004355, 0.7541289716423114, 0.863057004922266, 0.948135979814573, 0.9894463780276664, 1.0, 0.9998640910944212, 0.959120964835048, 0.8834078862619733, 0.7965561865142912, 0.7935307360944509, 0.8130425276692805, 0.8374647670934995, 0.8626374600398272, 0.8654664334548635, 0.8409658986828654, 0.8170488858424284, 0.7834705225401966, 0.8748397161276599, 0.9202879496073414, 0.6934604180085209, 0.6769371450857113, 0.6909047396753549, 0.7226956054150836, 0.7389603559631509, 0.8002818632520047, 0.8915993523645195, 0.9561339234537408, 0.9543611985983657, 0.9652191383375387, 0.9675310670030904, 0.9289447559844237, 0.8573414445343939, 0.7636307768671224, 0.8046890640603672, 0.8365981114571207, 0.8624010967257772, 0.8791730534003818, 0.8799412341710444, 0.8633859340191808, 0.8399367432680774, 0.8122723673558627, 0.7734398544001986, 0.709208123807104, 0.6431248707388126, 0.6271605084174885, 0.6077590098740775, 0.6302430701230862, 0.6547263799185729, 0.6423985558201512, 0.7531421548061525, 0.8258460329372279, 0.8503539540627899, 0.811989233651045, 0.8534192907918762, 0.818511383848113, 0.7632245274210989, 0.6980621162789324, 0.7135660724099013, 0.7512586346473163, 0.7694438371220403, 0.7306285491428876, 0.7077751712156757, 0.6846558845601575, 0.6684576111941666, 0.648315025024966, 0.6249889204696539, 0.6065821273880082, 0.6310974348671343, 0.6239696036778132, 0.6385059474918898, 0.658478647529117, 0.6808075943532804, 0.7331768411224894, 0.807321058198557, 0.8431448729842641, 0.86553291063694, 0.8264000094545326, 0.872047674480444, 0.8582204206085173, 0.8031108366670409, 0.7267507135217544, 0.7498182957023241, 0.7799767773043946, 0.8005329992731829, 0.8106744627166417, 0.8028227688780425, 0.78316768204407, 0.7525438601674633, 0.7236706040855398, 0.6894717870839266, 0.667216703795404, 0.6772843037032222, 0.6507894534689271, 0.660450803930722, 0.6557087649425932, 0.674684307248672, 0.7243723076741259, 0.8289113696663142, 0.9321799788454833, 0.9657066376727669, 0.9810702530860186, 0.9862702459951191, 0.9594651689111334, 0.8908754897152413, 0.7893057418558066, 0.7859966554591062, 0.8118341202261997, 0.8304551175612034, 0.7700716771749857, 0.7630339594991461, 0.7519603382359024, 0.7397935366451773, 0.7266694636325496, 0.7060172190674285, 0.6850399749454887, 0.6595600096908959, 0.6575509215214707, 0.6598200093363509, 0.6643640940489627, 0.6586263746003982, 0.6783213477436167, 0.770833948862797, 0.8639256401013998, 0.8913260572826492, 0.9351182702932678, 0.9390300831407958, 0.9130833003409541, 0.8362888596061006, 0.7551157884784704, 0.7487930698276322, 0.769279860072918, 0.7719803109359397, 0.7766248500570226, 0.7745921255561924, 0.7594057826284784, 0.7398408093079873, 0.7241403761722144, 0.7020285881428343, 0.6748231706956763, 0.6170973403218086, 0.605084174885216, 0.6077373530854276, 0.616163705231311, 0.6316277750530341, 0.691622693241782, 0.7819666609545532, 0.8542347442253488, 0.9090414876706987, 0.9419196246550573, 0.9393669008633171, 0.9121555743333079, 0.847711116757568, 0.7542471532993364, 0.7271658265920546, 0.7451530747912617, 0.782237001494998)
