New Circuit.source pu=1.0 r1=0.012127 x1=0.048507 r0=0.013581 x0=0.040742 basekv=10.0 bus1=1.1.2.3.0
