new loadshape.332 npts=168, interval=1, mult=(0.7203134581394509, 0.7165440248169389, 0.7025033365797352, 0.6906810229773113, 0.6763156945496519, 0.6693178948887205, 0.6809598528297803, 0.714830646033979, 0.7534988998304657, 0.7711376835118853, 0.7880460267647801, 0.8088951412184828, 0.8460393896764419, 0.887638422970097, 0.932105111279443, 0.9476517692890379, 0.8998124301121813, 0.8627854128341088, 0.824712332720124, 0.7380153663023482, 0.7144248457959095, 0.7280507160119756, 0.7432727338311148, 0.705497240558381, 0.737194748043141, 0.7628413230891317, 0.7589005518883237, 0.7557623633805864, 0.7621649893590159, 0.7651859466868663, 0.7762958554269018, 0.7592342098618474, 0.6159777080402553, 0.6019640731522562, 0.6299552717959817, 0.6150939652995707, 0.6569004076037946, 0.6909876276016303, 0.7273834000649281, 0.768288064062331, 0.8024293907585758, 0.7765573711358799, 0.7644645240414095, 0.7145420769757962, 0.6819157378350106, 0.7444901345453233, 0.731324171265736, 0.6908523608556072, 0.7852805612668181, 0.803616744219601, 0.8071035962918875, 0.7953564549291201, 0.7918936262309274, 0.7880460267647801, 0.8013923457057316, 0.8174560112541932, 0.8329425747574216, 0.7949596724741189, 0.8208948165782923, 0.8386057425242578, 0.8541042816434007, 0.8729815315802764, 0.9034856617249214, 0.9409876276016302, 0.9390999170363957, 0.8431386574324568, 0.8142817516141831, 0.7736295855426901, 0.7347449049525664, 0.7803508639036179, 0.8031357717418749, 0.8155803123760055, 0.8790895646214334, 0.8660678858709374, 0.8426216498935901, 0.8265699960321754, 0.8165302095732785, 0.810674638386899, 0.8205701763878368, 0.8170472171121451, 0.8375716913753922, 0.8386418136565306, 0.852925982036576, 0.9114363524871045, 0.9135014248097247, 0.9565342856112253, 0.9931825560004328, 1.0, 0.9226725101900949, 0.8730386321826641, 0.812547343361108, 0.7629946254012913, 0.7227302240017314, 0.7563304837138838, 0.7843667712729502, 0.7976229123832197, 0.8470674169462178, 0.8171734660751, 0.7743630559463262, 0.8220069977996608, 0.7674494102369872, 0.7696738087508567, 0.6545467662229917, 0.679192367348411, 0.7153356418857988, 0.7390704469213288, 0.7561952169678606, 0.780543231252029, 0.7818237564477147, 0.7932041986797965, 0.8228095804927316, 0.8248746528153519, 0.79772210799697, 0.7726887421996176, 0.7286458896944775, 0.6483876203874039, 0.6277910038596111, 0.680175305702846, 0.6659452440212098, 0.6637178516033618, 0.7339934350539262, 0.7281679471918623, 0.7092125671824838, 0.7004202286909786, 0.6917180680301555, 0.6842152725174042, 0.6982830141038127, 0.6946668830934603, 0.7192944486527432, 0.7347238754824513, 0.7473217184287415, 0.7540580023806946, 0.759468672221621, 0.78033582224146, 0.8321610215344659, 0.8543988745806731, 0.8451736825018936, 0.780714569130325, 0.6625184864552898, 0.6283771597590447, 0.5864715218410705, 0.595741802835191, 0.6083666991306856, 0.7153266241027305, 0.6717076074017962, 0.7282761605886808, 0.717662229917397, 0.7079951664682754, 0.6965786531039209, 0.691357356707427, 0.6896349601413988, 0.6510659019586624, 0.6578292392598203, 0.6629603578256321, 0.6434098041337517, 0.6576939725137971, 0.6760541788406738, 0.7142174367853407, 0.7550950474335388, 0.7800201998340727, 0.7721837463477977, 0.7431735382173646, 0.7101323810554413, 0.6597139559210763, 0.627096634563359, 0.6668380045449626, 0.6854687443638856, 0.6957760704108502)
new loadshape.333 npts=168, interval=1, mult=(0.6946378404788078, 0.7070423299811354, 0.6869766431877096, 0.6655741487181575, 0.6490778062782461, 0.6264674348221435, 0.6164719134671498, 0.6122511298399902, 0.6586118914810744, 0.6822401368022474, 0.6994489909477084, 0.738976426041285, 0.797415957547874, 0.8883528086532849, 0.9676248252649865, 1.0, 0.9903776990621989, 0.9814814814814815, 0.8567240747526567, 0.8155137548688299, 0.7320616695845718, 0.7328827545023954, 0.7509194793914471, 0.7437807906844183, 0.7691122782731431, 0.7809535442367982, 0.7638600491293785, 0.7384742749345168, 0.7219711466688381, 0.7007247261919303, 0.6919438676492542, 0.6794172332831182, 0.6509846233188116, 0.6730792720166117, 0.7080805613235075, 0.734348492868097, 0.7809264009337297, 0.8518043510714819, 0.920212260629996, 0.9525535062361739, 0.954629968920918, 0.9389275680957616, 0.8795990934136775, 0.7737266397947966, 0.6961035788445096, 0.714276020248904, 0.7195893218245728, 0.7183135865803509, 0.7219394704341571, 0.7065039968513769, 0.6928509154078959, 0.6704757678161856, 0.6553026614008658, 0.6488696985736194, 0.6384195268922275, 0.6457934666069514, 0.701419133314333, 0.6964428701328665, 0.7093178345072811, 0.7064406443820148, 0.7217766106157458, 0.7790580459536122, 0.8655185049468669, 0.9178960411492475, 0.9275228478753579, 0.9581043117136925, 0.8525892539663151, 0.7536971350243611, 0.681803591058996, 0.6851693606394962, 0.7268795515926333, 0.7620572723694746, 0.765540681025474, 0.7411569290066908, 0.7318558419174029, 0.7046944342657058, 0.6816316653773598, 0.661509439083642, 0.6569765074711942, 0.6457029979778239, 0.6530135852231859, 0.6525973969572357, 0.6883360612352918, 0.6575465168356337, 0.7526362933105329, 0.8450456686074128, 0.9204226212287773, 0.9527706526607223, 0.9630104637433329, 0.9221122918447945, 0.8384905609163579, 0.7659636551171912, 0.7220525765780438, 0.7300394935059646, 0.7495894575410881, 0.7828128604969938, 0.7992549163307682, 0.7826296432012811, 0.7401345493533108, 0.7773027699740781, 0.7145474532795896, 0.6877027265447931, 0.5707558052739438, 0.5935493940257589, 0.6552529077263413, 0.6825387131360015, 0.6788472239186786, 0.602330252568435, 0.6202516184194454, 0.6784400743726504, 0.7675447525209342, 0.7992684879823025, 0.8148419581178833, 0.8040185660192989, 0.7287976873905786, 0.636849748245864, 0.6112468276264539, 0.6517514216304983, 0.6893652538577419, 0.7000868585698193, 0.7205461232577391, 0.7212586349632887, 0.7056512356988721, 0.6846491049495813, 0.6773611280756755, 0.6632330388284949, 0.6459970413799655, 0.6211880623753104, 0.5906722039004927, 0.6056213780654968, 0.6329207551266913, 0.6345154241819687, 0.6485485118684092, 0.7240611810051165, 0.8044325013910942, 0.8655117191210999, 0.8923903749847318, 0.8803455342480626, 0.8708928789544399, 0.7898633334690498, 0.7050472972055969, 0.7137806549679031, 0.7486258702821547, 0.7610371456102493, 0.7154838972354545, 0.6864880637324756, 0.6848255364195269, 0.6661238006052956, 0.6562572099398776, 0.6461802586756782, 0.6326493220960059, 0.6021198919696539, 0.602228465181928, 0.6088175020018186, 0.5961076503399699, 0.5991477002836475, 0.6198580405249515, 0.6902881261620727, 0.7563209967020886, 0.8111640405520947, 0.8316572343688503, 0.8092775809888305, 0.7520730697718605, 0.6980511108396781, 0.6281910345669964, 0.6302878547290419, 0.6481345764966138, 0.6736628530325856)
new loadshape.334 npts=168, interval=1, mult=(0.6420054309834919, 0.6479069204710437, 0.635599827929236, 0.6083575307845351, 0.5853430660859278, 0.5581948701403452, 0.5295948271226542, 0.48478249179975264, 0.4965316986610743, 0.5419153626929074, 0.5859748884228638, 0.6304040974350701, 0.7088508899284831, 0.8120597408184116, 0.9264599128891756, 0.968476098295424, 0.9719040705490133, 0.9878743883422058, 1.0, 0.9259154702371349, 0.8236677958810561, 0.7862692907458192, 0.7204656665053503, 0.6811918589019734, 0.7604385115878906, 0.7564392106253697, 0.7330819487014034, 0.7017529709092865, 0.6760902296069259, 0.64787331289993, 0.6173038662149809, 0.5751398074958327, 0.5606549443458623, 0.5831182448782061, 0.6140842609022961, 0.6474901865892349, 0.7169099854815293, 0.7839100392536431, 0.8872734849706941, 0.9269774694843255, 0.9430956605904178, 0.9769048771307199, 0.9930096252083669, 0.932542883260741, 0.8284333494649675, 0.7793192450395224, 0.706612625692316, 0.6446402645587999, 0.5831227348497069, 0.5726102866053665, 0.5574555035758456, 0.5377211378179276, 0.5204423562940259, 0.5016131634134537, 0.47327525945044896, 0.43304476528472335, 0.41721783083293, 0.45771718556756463, 0.49161155025004033, 0.5283647900198957, 0.5805506264451256, 0.6402466257998601, 0.7298309673603269, 0.7792385868688498, 0.8025039791364198, 0.8343101844383503, 0.8579878475022853, 0.8009445878367478, 0.6995483142442329, 0.663978060977577, 0.627995563800613, 0.6164345593375276, 0.6150543904930903, 0.6052768457278056, 0.5897277249018659, 0.5660321557240415, 0.541951201806743, 0.5170636930687745, 0.49282142281013064, 0.4482264074850782, 0.45665072323493033, 0.48899464967467865, 0.5215536645695542, 0.540147604452331, 0.6449427326988224, 0.7144431897617896, 0.7942342850997473, 0.8359143947948593, 0.8477845889121901, 0.8875826746249396, 0.9188175512179383, 0.8559377856643544, 0.7638664838414798, 0.739158197558746, 0.7061421196967254, 0.6995886433295693, 0.7039240200032264, 0.6392832177232887, 0.6205122600419423, 0.6798005054578695, 0.5888494649674679, 0.4853067699091251, 0.43663628542238, 0.44866107436683333, 0.4693969457439372, 0.5083817282357369, 0.5376606441899231, 0.5628797655535839, 0.6123030596332741, 0.6554686239716082, 0.7224888422863902, 0.7653048878851427, 0.7857114050653331, 0.8071194278647094, 0.8179948378770768, 0.7418468032478356, 0.6784427595848793, 0.6535865999892455, 0.6088549228370167, 0.6085793407538851, 0.6125853632306285, 0.608068505672958, 0.591331935258375, 0.5747029090713557, 0.5588065279346132, 0.5393880733451631, 0.5179867720600096, 0.46369710168306716, 0.4506708071194278, 0.4938565360004301, 0.5237605527773297, 0.556252352529978, 0.5997674356078938, 0.6515096520944238, 0.7488170134968005, 0.8308396515567027, 0.8697504973920525, 0.8885035220734526, 0.9152551486798945, 0.8566368231435177, 0.7538043770500618, 0.7172998333064473, 0.6623245684787868, 0.630578856804861, 0.6036457493144055, 0.5960168306716136, 0.5861025971930955, 0.5762959079421411, 0.5634174866914018, 0.5481058772920363, 0.5307576490831855, 0.48368688498144863, 0.4628031402914448, 0.4696254772275098, 0.47733505404097437, 0.4931709415497123, 0.5382924665268591, 0.6185742324030757, 0.7172258966499974, 0.7871699736516643, 0.8086989837070495, 0.803597354412002, 0.7760794751841695, 0.6987148464806152, 0.5948204011399688, 0.5771562617626499, 0.586364736247782, 0.6158721836855408)
new loadshape.335 npts=168, interval=1, mult=(0.698846663127123, 0.7086401115595955, 0.6881064933569587, 0.667931094038854, 0.6492589346826244, 0.6244330866313992, 0.602511370251201, 0.5750820385213237, 0.5822400194461681, 0.5871207517479162, 0.5996584127065355, 0.6227379436956675, 0.6872237396772192, 0.8093955696000102, 0.9197653666306316, 0.9681121225108585, 1.0, 0.9942748946132836, 0.9704469420261116, 0.8646124519442969, 0.7850110983886547, 0.7900069724747169, 0.801853782727453, 0.7757165976882089, 0.7997428500150324, 0.8043677116849721, 0.7748466375400598, 0.7462019203090917, 0.7281694375323836, 0.7069257783264781, 0.6766306955203449, 0.5887199431967197, 0.5534865571966814, 0.6009761464603497, 0.6245098478209418, 0.6590779701782778, 0.7175060289517621, 0.7935571774910606, 0.8950162797689489, 0.9409386614127897, 0.9588112250446175, 0.9633913093539906, 0.9262836709759545, 0.8581389249595405, 0.7766313351969244, 0.7707782944943037, 0.7559441946152026, 0.7471550384125787, 0.712992036026585, 0.7004032009416039, 0.688087303059573, 0.6718054103845096, 0.6551823398089925, 0.640154213229791, 0.6245546251815083, 0.5888094979178528, 0.5949333265101165, 0.5925963832686194, 0.6064219178783208, 0.6239746432203878, 0.6625428935130399, 0.7456581952164985, 0.8348120438306392, 0.8973980003710124, 0.9230703708205131, 0.9307123566324866, 0.9117438223234333, 0.8370381183273736, 0.7560380223758868, 0.7479183772684531, 0.7884226982837477, 0.8213362076134306, 0.835374959220618, 0.8216773599268211, 0.752310831643521, 0.7449076498922146, 0.716881269630075, 0.6992006089721037, 0.6870467539611972, 0.6549776433035458, 0.6907910112647047, 0.6812811442534654, 0.6724024333297085, 0.7067018915236456, 0.7497265382622545, 0.8409444185020054, 0.9261877194890263, 0.9730632192363541, 0.9951704418246134, 0.9911340826078334, 0.957570252480346, 0.8821843675837497, 0.7977918364474921, 0.7965380703516303, 0.8164256152089504, 0.8428954320695456, 0.8640943139148846, 0.8292895112231257, 0.7600637117873204, 0.8131440743560056, 0.7147490228940249, 0.5954813246422609, 0.5292684018960014, 0.5424777232631182, 0.5853424508568468, 0.5987500719636153, 0.6001061863122006, 0.6141278969353096, 0.6628072846368877, 0.7523556090040876, 0.8345284624094058, 0.907547543961773, 0.9365632736088634, 0.93078059732999, 0.8756660632384268, 0.7655777239027948, 0.6683660741129285, 0.6564297091390593, 0.6885414734310332, 0.71400699806178, 0.7384234531021117, 0.7547543961772928, 0.733920129982281, 0.7099898291423856, 0.6972986458046811, 0.6688458315475696, 0.6481778812632333, 0.6073729122555636, 0.6089465166411863, 0.6022043254930308, 0.6088825489832341, 0.6137952651139583, 0.6307914718318418, 0.6807630062240531, 0.7878384688701393, 0.8518636977144356, 0.8820244484388694, 0.8839754620064096, 0.8586186823941816, 0.7911008194256984, 0.6970427751728726, 0.6822790397175188, 0.6866416339898548, 0.6825349103493275, 0.68156899871425, 0.6810956380454043, 0.6721593562294903, 0.667125101548657, 0.6526556173198831, 0.6369835411216089, 0.6209404525072124, 0.5781972634635928, 0.5584056700932009, 0.549290278835021, 0.5453818549341453, 0.5571966813579055, 0.5870056099636024, 0.660965016087866, 0.7462850782644296, 0.8083209129464143, 0.8332427124845678, 0.8289248955727984, 0.7986490030640508, 0.7166104817404321, 0.6398492921978648, 0.6271197282653891, 0.6357425685573375, 0.6656986227763243)
New "LoadShape.GFV01I_0100" npts=24 csvfile=GFV01I_0100.csv 
