New Circuit.source pu=1.025 r1=0 x1=0.001 r0=0 x0=0.001 basekv=115 angle=0 phases=3 bus1=Substation115kV.1.2.3
