New LoadShape.default npts=24 interval=1 mult=[ 0.677 0.6256 0.6087 0.5833 0.58028 0.6025 0.657 0.7477 0.832 0.88 0.94 0.989 0.985 0.98 0.9898 0.999 1 0.958 0.936 0.913 0.876 0.876 0.828 0.756]
New LoadShape.332 npts=24 interval=1 mult=[ 0.904814 0.89005 0.864825 0.856003 0.840612 0.828451 0.827906 0.84922 0.86988 0.891797 0.907005 0.931377 0.947234 0.973201 0.978359 1 0.98343 0.964713 0.922356 0.86768 0.846322 0.883553 0.893349 0.900345]
New LoadShape.333 npts=24 interval=1 mult=[ 0.804491 0.789516 0.764597 0.744553 0.718413 0.706173 0.709181 0.683196 0.696863 0.713768 0.737967 0.765137 0.811072 0.892767 0.948057 0.984167 1 0.995521 0.917183 0.834116 0.770579 0.784137 0.797552 0.816789]
New LoadShape.334 npts=24 interval=1 mult=[ 0.806788 0.757489 0.701372 0.667391 0.64523 0.624688 0.622002 0.63922 0.640459 0.699922 0.751371 0.784895 0.821299 0.820525 0.824344 0.833434 0.820491 0.886581 0.959273 1 0.983715 0.944466 0.871841 0.840538]
New LoadShape.335 npts=24 interval=1 mult=[ 0.816368 0.810537 0.775653 0.756413 0.728257 0.705193 0.692597 0.651092 0.660547 0.668354 0.685582 0.715533 0.761029 0.83272 0.928185 0.967291 0.988744 1 0.956828 0.885049 0.816908 0.812067 0.824363 0.837119]
New LoadShape.gfv01i_0100 npts=24 interval=1 mult=[ 0 0 0 0 0 0 0.0097148 0.21305 0.33052 0.21862 0.58203 0.8775 1 0.93183 0.62488 0.92116 0.65285 0.63008 0.11021 0.26485 0 0 0 0]
New LoadShape.gbio01_0100 npts=24 interval=1 mult=[ 0 0 0 0 0 0 0.0097148 0.21305 0.33052 0.21862 0.58203 0.8775 1 0.93183 0.62488 0.92116 0.65285 0.63008 0.11021 0.26485 0 0 0 0]
New LoadShape.gge01_0100 npts=24 interval=1 mult=[ 0 0 0 0 0 0 0.0097148 0.21305 0.33052 0.21862 0.58203 0.8775 1 0.93183 0.62488 0.92116 0.65285 0.63008 0.11021 0.26485 0 0 0 0]
