new loadshape.332 npts=24 interval=1 mult=(0.72, 0.71, 0.70, 0.69, 0.67, 0.66, 0.68, 0.71, 0.75, 0.77, 0.78, 0.80, 0.72, 0.71, 0.70, 0.69, 0.67, 0.66, 0.68, 0.71, 0.75, 0.77, 0.78, 0.80)
new loadshape.333 npts=24 interval=1 mult=(0.72, 0.71, 0.70, 0.69, 0.67, 0.66, 0.68, 0.71, 0.75, 0.77, 0.78, 0.80, 0.72, 0.71, 0.70, 0.69, 0.67, 0.66, 0.68, 0.71, 0.75, 0.77, 0.78, 0.80)
new loadshape.334 npts=24 interval=1 mult=(0.72, 0.71, 0.70, 0.69, 0.67, 0.66, 0.68, 0.71, 0.75, 0.77, 0.78, 0.80, 0.72, 0.71, 0.70, 0.69, 0.67, 0.66, 0.68, 0.71, 0.75, 0.77, 0.78, 0.80)
new loadshape.335 npts=24 interval=1 mult=(0.72, 0.71, 0.70, 0.69, 0.67, 0.66, 0.68, 0.71, 0.75, 0.77, 0.78, 0.80, 0.72, 0.71, 0.70, 0.69, 0.67, 0.66, 0.68, 0.71, 0.75, 0.77, 0.78, 0.80)